C22H20N4O2
APtclcactv01052013453D 0   0.00000     0.00000     1
 
 48 51  0  0  0  0  0  0  0  0999 V2000
    4.9020    3.1260    5.2960 C   0  0  0  0  0  0  0  0  0  0  0  0
    9.2700    7.0690    4.1420 N   0  0  0  0  0  0  0  0  0  0  0  0
    6.2860    3.4780    5.2140 O   0  0  0  0  0  0  0  0  0  0  0  0
    8.6480    7.4690    5.2360 C   0  0  0  0  0  0  0  0  0  0  0  0
    7.9250    6.5730    6.0170 C   0  0  0  0  0  0  0  0  0  0  0  0
    7.8620    5.2350    5.6450 C   0  0  0  0  0  0  0  0  0  0  0  0
    8.5270    4.8490    4.4870 C   0  0  0  0  0  0  0  0  0  0  0  0
    9.2350    5.7890    3.7470 C   0  0  0  0  0  0  0  0  0  0  0  0
    8.7150    3.6350    3.8400 C   0  0  0  0  0  0  0  0  0  0  0  0
    9.4850    3.8570    2.7770 C   0  0  0  0  0  0  0  0  0  0  0  0
    9.7970    5.1500    2.7210 N   0  0  0  0  0  0  0  0  0  0  0  0
    8.2270    2.4230    4.3120 C   0  0  0  0  0  0  0  0  0  0  0  0
    7.0350    2.3580    5.0270 C   0  0  0  0  0  0  0  0  0  0  0  0
    6.5930    1.1390    5.5330 C   0  0  0  0  0  0  0  0  0  0  0  0
    7.3410   -0.0150    5.3280 C   0  0  0  0  0  0  0  0  0  0  0  0
    8.5290    0.0520    4.6150 C   0  0  0  0  0  0  0  0  0  0  0  0
    8.9700    1.2660    4.1050 C   0  0  0  0  0  0  0  0  0  0  0  0
    7.2620    7.0110    7.1590 C   0  0  0  0  0  0  0  0  0  0  0  0
    6.2490    6.2380    7.7160 C   0  0  0  0  0  0  0  0  0  0  0  0
    5.6440    6.6150    8.8280 N   0  0  0  0  0  0  0  0  0  0  0  0
    5.9760    7.7350    9.4470 C   0  0  0  0  0  0  0  0  0  0  0  0
    6.9840    8.5560    8.9560 C   0  0  0  0  0  0  0  0  0  0  0  0
    7.6390    8.1900    7.7860 C   0  0  0  0  0  0  0  0  0  0  0  0
    7.3530    9.8390    9.7050 C   0  0  0  0  0  0  0  0  0  0  0  0
    7.1870    9.9100   10.9240 O   0  0  0  0  0  0  0  0  0  0  0  0
    7.8650   10.8300    8.9800 N   0  0  0  0  0  0  0  0  0  0  0  0
    8.0470   10.6650    7.5300 C   0  0  0  0  0  0  0  0  0  0  0  0
    8.2440   12.0750    9.6630 C   0  0  0  0  0  0  0  0  0  0  0  0
   10.3670    5.5780    2.0220 H   0  0  0  0  0  0  0  0  0  0  0  0
    4.7104    2.3573    6.0806 H   0  0  0  0  0  0  0  0  0  0  0  0
    4.5652    2.5392    4.4098 H   0  0  0  0  0  0  0  0  0  0  0  0
    4.2881    4.0440    5.4493 H   0  0  0  0  0  0  0  0  0  0  0  0
    8.7313    8.5381    5.4942 H   0  0  0  0  0  0  0  0  0  0  0  0
    7.3017    4.5023    6.2499 H   0  0  0  0  0  0  0  0  0  0  0  0
    9.8131    3.0898    2.0556 H   0  0  0  0  0  0  0  0  0  0  0  0
    5.6472    1.0873    6.0981 H   0  0  0  0  0  0  0  0  0  0  0  0
    6.9928   -0.9813    5.7300 H   0  0  0  0  0  0  0  0  0  0  0  0
    9.1244   -0.8623    4.4532 H   0  0  0  0  0  0  0  0  0  0  0  0
    9.9127    1.3114    3.5341 H   0  0  0  0  0  0  0  0  0  0  0  0
    5.9133    5.2918    7.2593 H   0  0  0  0  0  0  0  0  0  0  0  0
    5.4169    7.9823   10.3651 H   0  0  0  0  0  0  0  0  0  0  0  0
    8.4397    8.8208    7.3647 H   0  0  0  0  0  0  0  0  0  0  0  0
    7.0684   10.3714    7.0835 H   0  0  0  0  0  0  0  0  0  0  0  0
    8.6570    9.7484    7.3538 H   0  0  0  0  0  0  0  0  0  0  0  0
    8.4761   11.4956    6.9224 H   0  0  0  0  0  0  0  0  0  0  0  0
    8.9474   11.8329   10.4936 H   0  0  0  0  0  0  0  0  0  0  0  0
    7.3647   12.4586   10.2312 H   0  0  0  0  0  0  0  0  0  0  0  0
    8.6731   12.9056    9.0554 H   0  0  0  0  0  0  0  0  0  0  0  0
  1  3  1  0  0  0  0
  2  4  1  0  0  0  0
  2  8  2  0  0  0  0
  3 13  1  0  0  0  0
  4  5  2  0  0  0  0
  5  6  1  0  0  0  0
  5 18  1  0  0  0  0
  6  7  2  0  0  0  0
  7  9  1  0  0  0  0
  7  8  1  0  0  0  0
  8 11  1  0  0  0  0
  9 10  2  0  0  0  0
  9 12  1  0  0  0  0
 10 11  1  0  0  0  0
 11 29  1  0  0  0  0
 12 17  1  0  0  0  0
 12 13  2  0  0  0  0
 13 14  1  0  0  0  0
 14 15  2  0  0  0  0
 15 16  1  0  0  0  0
 16 17  2  0  0  0  0
 18 23  2  0  0  0  0
 18 19  1  0  0  0  0
 19 20  2  0  0  0  0
 20 21  1  0  0  0  0
 21 22  2  0  0  0  0
 22 23  1  0  0  0  0
 22 24  1  0  0  0  0
 24 25  2  0  0  0  0
 24 26  1  0  0  0  0
 26 28  1  0  0  0  0
 26 27  1  0  0  0  0
  1 30  1  0  0  0  0
  1 31  1  0  0  0  0
  1 32  1  0  0  0  0
  4 33  1  0  0  0  0
  6 34  1  0  0  0  0
 10 35  1  0  0  0  0
 14 36  1  0  0  0  0
 15 37  1  0  0  0  0
 16 38  1  0  0  0  0
 17 39  1  0  0  0  0
 19 40  1  0  0  0  0
 21 41  1  0  0  0  0
 23 42  1  0  0  0  0
 27 43  1  0  0  0  0
 27 44  1  0  0  0  0
 27 45  1  0  0  0  0
 28 46  1  0  0  0  0
 28 47  1  0  0  0  0
 28 48  1  0  0  0  0
M  END
> <UNIQUE_SMILES>
COc1ccccc1c2c[nH]c3ncc(cc23)c4cncc(c4)C(=O)N(C)C

$$$$
