C29H30N8O
APtclcactv01052013473D 0   0.00000     0.00000     1
 
 68 72  0  0  0  0  0  0  0  0999 V2000
   10.7530    8.1470   -0.7050 C   0  0  0  0  0  0  0  0  0  0  0  0
    8.7330    3.4590    6.5110 C   0  0  0  0  0  0  0  0  0  0  0  0
    6.7080    2.7170    5.2280 C   0  0  0  0  0  0  0  0  0  0  0  0
    8.7920    1.3180    5.2020 C   0  0  0  0  0  0  0  0  0  0  0  0
    9.7500    8.6930    2.9310 C   0  0  0  0  0  0  0  0  0  0  0  0
   10.1600    8.9360    1.6250 C   0  0  0  0  0  0  0  0  0  0  0  0
    9.4650    7.3930    3.3340 C   0  0  0  0  0  0  0  0  0  0  0  0
    9.9350    0.4240   -1.1720 C   0  0  0  0  0  0  0  0  0  0  0  0
   10.6200    1.6920   -3.0980 C   0  0  0  0  0  0  0  0  0  0  0  0
    9.9640   -0.7400   -1.9300 C   0  0  0  0  0  0  0  0  0  0  0  0
   10.6460    0.5270   -3.8540 C   0  0  0  0  0  0  0  0  0  0  0  0
    9.8610   -6.3760   -5.9180 C   0  0  0  0  0  0  0  0  0  0  0  0
    9.5940   -6.4680   -4.5550 C   0  0  0  0  0  0  0  0  0  0  0  0
   10.0020    6.5840    1.1400 C   0  0  0  0  0  0  0  0  0  0  0  0
    9.0270    2.9630    2.8540 C   0  0  0  0  0  0  0  0  0  0  0  0
   10.2270   -4.0050   -5.6950 C   0  0  0  0  0  0  0  0  0  0  0  0
    9.8180    2.7600    0.2200 C   0  0  0  0  0  0  0  0  0  0  0  0
   10.4240   -5.0670   -7.7890 N   0  0  0  0  0  0  0  0  0  0  0  0
    8.9300    4.8270    3.9850 N   0  0  0  0  0  0  0  0  0  0  0  0
   10.1990    2.7770   -1.0560 N   0  0  0  0  0  0  0  0  0  0  0  0
    9.7780    3.9400    0.8370 N   0  0  0  0  0  0  0  0  0  0  0  0
   10.2890   -1.7890   -4.0280 N   0  0  0  0  0  0  0  0  0  0  0  0
    9.4950    1.7220    0.7900 O   0  0  0  0  0  0  0  0  0  0  0  0
   10.2860    7.8830    0.7280 C   0  0  0  0  0  0  0  0  0  0  0  0
   10.1790   -5.1460   -6.4850 C   0  0  0  0  0  0  0  0  0  0  0  0
   10.2630    1.6450   -1.7530 C   0  0  0  0  0  0  0  0  0  0  0  0
   10.3130   -0.6930   -3.2760 C   0  0  0  0  0  0  0  0  0  0  0  0
    9.5900    6.3380    2.4410 C   0  0  0  0  0  0  0  0  0  0  0  0
    8.7350    3.5120    4.0290 C   0  0  0  0  0  0  0  0  0  0  0  0
    9.4010    4.0010    2.1120 C   0  0  0  0  0  0  0  0  0  0  0  0
    8.2370    2.7410    5.2530 C   0  0  0  0  0  0  0  0  0  0  0  0
    9.3180    5.1030    2.8520 N   0  0  0  0  0  0  0  0  0  0  0  0
    9.7140   -3.1220   -2.2130 N   0  0  0  0  0  0  0  0  0  0  0  0
    9.4190   -4.3030   -1.7030 C   0  0  0  0  0  0  0  0  0  0  0  0
    9.3800   -5.3920   -2.4540 N   0  0  0  0  0  0  0  0  0  0  0  0
    9.6410   -5.3260   -3.7650 C   0  0  0  0  0  0  0  0  0  0  0  0
    9.9590   -4.0970   -4.3330 C   0  0  0  0  0  0  0  0  0  0  0  0
    9.9960   -2.9790   -3.5140 C   0  0  0  0  0  0  0  0  0  0  0  0
   10.4410    3.6320   -1.5100 H   0  0  0  0  0  0  0  0  0  0  0  0
   10.0390    4.7800    0.3670 H   0  0  0  0  0  0  0  0  0  0  0  0
   10.5020   -1.7160   -5.0020 H   0  0  0  0  0  0  0  0  0  0  0  0
   10.6480   -4.1880   -8.2070 H   0  0  0  0  0  0  0  0  0  0  0  0
   10.3870   -5.8940   -8.3540 H   0  0  0  0  0  0  0  0  0  0  0  0
   11.7247    8.6922   -0.6636 H   0  0  0  0  0  0  0  0  0  0  0  0
   10.0842    8.9162   -1.1570 H   0  0  0  0  0  0  0  0  0  0  0  0
   10.8541    7.3017   -1.4251 H   0  0  0  0  0  0  0  0  0  0  0  0
    8.3079    3.0132    7.4404 H   0  0  0  0  0  0  0  0  0  0  0  0
    8.2985    4.4814    6.6061 H   0  0  0  0  0  0  0  0  0  0  0  0
    9.8477    3.4765    6.5292 H   0  0  0  0  0  0  0  0  0  0  0  0
    6.2735    3.7394    5.3231 H   0  0  0  0  0  0  0  0  0  0  0  0
    6.2829    2.2712    6.1574 H   0  0  0  0  0  0  0  0  0  0  0  0
    6.3468    2.1941    4.3118 H   0  0  0  0  0  0  0  0  0  0  0  0
    8.5547    0.7454    6.1288 H   0  0  0  0  0  0  0  0  0  0  0  0
    9.9042    1.3022    5.2789 H   0  0  0  0  0  0  0  0  0  0  0  0
    8.4308    0.7951    4.2858 H   0  0  0  0  0  0  0  0  0  0  0  0
    9.6512    9.5283    3.6446 H   0  0  0  0  0  0  0  0  0  0  0  0
   10.3856    9.9656    1.3001 H   0  0  0  0  0  0  0  0  0  0  0  0
    9.1376    7.1973    4.3690 H   0  0  0  0  0  0  0  0  0  0  0  0
    9.6511    0.3787   -0.1071 H   0  0  0  0  0  0  0  0  0  0  0  0
   10.8831    2.6554   -3.5662 H   0  0  0  0  0  0  0  0  0  0  0  0
    9.7089   -1.7053   -1.4613 H   0  0  0  0  0  0  0  0  0  0  0  0
   10.9324    0.5709   -4.9183 H   0  0  0  0  0  0  0  0  0  0  0  0
    9.8205   -7.2792   -6.5498 H   0  0  0  0  0  0  0  0  0  0  0  0
    9.3460   -7.4428   -4.1024 H   0  0  0  0  0  0  0  0  0  0  0  0
   10.1040    5.7448    0.4315 H   0  0  0  0  0  0  0  0  0  0  0  0
    8.9721    1.9002    2.5640 H   0  0  0  0  0  0  0  0  0  0  0  0
   10.4768   -3.0304   -6.1471 H   0  0  0  0  0  0  0  0  0  0  0  0
    9.2001   -4.3817   -0.6248 H   0  0  0  0  0  0  0  0  0  0  0  0
  1 24  1  0  0  0  0
  2 31  1  0  0  0  0
  3 31  1  0  0  0  0
  4 31  1  0  0  0  0
  5  6  1  0  0  0  0
  5  7  2  0  0  0  0
  6 24  2  0  0  0  0
  7 28  1  0  0  0  0
  8 10  1  0  0  0  0
  8 26  2  0  0  0  0
  9 11  2  0  0  0  0
  9 26  1  0  0  0  0
 10 27  2  0  0  0  0
 11 27  1  0  0  0  0
 12 25  1  0  0  0  0
 12 13  2  0  0  0  0
 13 36  1  0  0  0  0
 14 28  2  0  0  0  0
 14 24  1  0  0  0  0
 15 29  1  0  0  0  0
 15 30  2  0  0  0  0
 16 25  2  0  0  0  0
 16 37  1  0  0  0  0
 17 23  2  0  0  0  0
 17 20  1  0  0  0  0
 17 21  1  0  0  0  0
 18 42  1  0  0  0  0
 18 43  1  0  0  0  0
 18 25  1  0  0  0  0
 19 32  1  0  0  0  0
 19 29  2  0  0  0  0
 20 39  1  0  0  0  0
 20 26  1  0  0  0  0
 21 40  1  0  0  0  0
 21 30  1  0  0  0  0
 22 41  1  0  0  0  0
 22 38  1  0  0  0  0
 22 27  1  0  0  0  0
 28 32  1  0  0  0  0
 29 31  1  0  0  0  0
 30 32  1  0  0  0  0
 33 34  2  0  0  0  0
 33 38  1  0  0  0  0
 34 35  1  0  0  0  0
 35 36  2  0  0  0  0
 36 37  1  0  0  0  0
 37 38  2  0  0  0  0
  1 44  1  0  0  0  0
  1 45  1  0  0  0  0
  1 46  1  0  0  0  0
  2 47  1  0  0  0  0
  2 48  1  0  0  0  0
  2 49  1  0  0  0  0
  3 50  1  0  0  0  0
  3 51  1  0  0  0  0
  3 52  1  0  0  0  0
  4 53  1  0  0  0  0
  4 54  1  0  0  0  0
  4 55  1  0  0  0  0
  5 56  1  0  0  0  0
  6 57  1  0  0  0  0
  7 58  1  0  0  0  0
  8 59  1  0  0  0  0
  9 60  1  0  0  0  0
 10 61  1  0  0  0  0
 11 62  1  0  0  0  0
 12 63  1  0  0  0  0
 13 64  1  0  0  0  0
 14 65  1  0  0  0  0
 15 66  1  0  0  0  0
 16 67  1  0  0  0  0
 34 68  1  0  0  0  0
M  END
> <UNIQUE_SMILES>
Cc1cccc(c1)n2nc(cc2NC(=O)Nc3ccc(Nc4ncnc5ccc(N)cc45)cc3)C(C)(C)C

$$$$
