C28H43N5O3
APtclcactv01052013553D 0   0.00000     0.00000     1
 
 79 82  0  0  0  0  0  0  0  0999 V2000
    7.9880    6.9170    8.5980 C   0  0  0  0  0  0  0  0  0  0  0  0
    9.0450   11.5290    8.5870 C   0  0  0  0  0  0  0  0  0  0  0  0
    9.8900    3.7060    1.5720 C   0  0  0  0  0  0  0  0  0  0  0  0
   10.5520    6.1740    1.9870 C   0  0  0  0  0  0  0  0  0  0  0  0
   10.1110    0.3100    2.1110 C   0  0  0  0  0  0  0  0  0  0  0  0
   12.0070    2.5560    3.1510 C   0  0  0  0  0  0  0  0  0  0  0  0
    9.9620    8.2110    4.8140 C   0  0  0  0  0  0  0  0  0  0  0  0
    9.3440    5.4750    6.0920 C   0  0  0  0  0  0  0  0  0  0  0  0
    9.8780   11.4990    7.3040 C   0  0  0  0  0  0  0  0  0  0  0  0
    9.5410   10.2820    6.4410 C   0  0  0  0  0  0  0  0  0  0  0  0
    6.9560   14.9110   10.6700 C   0  0  0  0  0  0  0  0  0  0  0  0
    7.1610   11.7380    9.6530 C   0  0  0  0  0  0  0  0  0  0  0  0
    7.7820   12.9810    7.5640 C   0  0  0  0  0  0  0  0  0  0  0  0
    6.1180   12.8470    9.7750 C   0  0  0  0  0  0  0  0  0  0  0  0
    7.9260   14.0570    8.6460 C   0  0  0  0  0  0  0  0  0  0  0  0
   12.4770    1.3040    2.4050 C   0  0  0  0  0  0  0  0  0  0  0  0
   11.6280    0.3210    1.9060 C   0  0  0  0  0  0  0  0  0  0  0  0
    9.7340    1.3310    3.1860 C   0  0  0  0  0  0  0  0  0  0  0  0
    9.6600    2.8560    0.8520 N   0  0  0  0  0  0  0  0  0  0  0  0
   11.1420    6.9060    3.1170 N   0  0  0  0  0  0  0  0  0  0  0  0
   10.0080    3.3170    4.3670 N   0  0  0  0  0  0  0  0  0  0  0  0
    9.3580    6.7080    8.2480 O   0  0  0  0  0  0  0  0  0  0  0  0
    9.9060    9.0830    7.1470 O   0  0  0  0  0  0  0  0  0  0  0  0
   10.1790    4.7760    2.4790 C   0  0  0  0  0  0  0  0  0  0  0  0
   10.5420    2.3950    3.5720 C   0  0  0  0  0  0  0  0  0  0  0  0
    9.4970    6.7720    6.8940 C   0  0  0  0  0  0  0  0  0  0  0  0
    9.7760    8.0090    6.3200 C   0  0  0  0  0  0  0  0  0  0  0  0
   10.0710    4.5400    3.8440 C   0  0  0  0  0  0  0  0  0  0  0  0
   10.3530    6.8690    4.1890 C   0  0  0  0  0  0  0  0  0  0  0  0
    9.9360    5.6360    4.6870 C   0  0  0  0  0  0  0  0  0  0  0  0
    7.6200   11.6980    8.2590 N   0  3  0  0  0  0  0  0  0  0  0  0
    6.6870   14.1620    9.4340 N   0  3  0  0  0  0  0  0  0  0  0  0
   12.3280   -0.9610    0.9820 C   0  0  0  0  0  0  0  0  0  0  0  0
    8.1890    1.1720    3.9510 C   0  0  0  0  0  0  0  0  0  0  0  0
   14.4560    2.4110    2.1190 C   0  0  0  0  0  0  0  0  0  0  0  0
   13.8150    1.1370    2.2170 O   0  0  0  0  0  0  0  0  0  0  0  0
    7.5420   10.8320    7.7640 H   0  0  0  0  0  0  0  0  0  0  0  0
    6.0070   14.6730    8.9080 H   0  0  0  0  0  0  0  0  0  0  0  0
   11.3110    7.8570    2.8580 H   0  0  0  0  0  0  0  0  0  0  0  0
   10.4810    3.3080    5.2490 H   0  0  0  0  0  0  0  0  0  0  0  0
    7.3061    6.2097    8.0708 H   0  0  0  0  0  0  0  0  0  0  0  0
    7.5866    7.8687    8.1780 H   0  0  0  0  0  0  0  0  0  0  0  0
    7.8743    6.8646    9.7059 H   0  0  0  0  0  0  0  0  0  0  0  0
    9.2237   10.6302    9.2222 H   0  0  0  0  0  0  0  0  0  0  0  0
    9.4045   12.3068    9.3004 H   0  0  0  0  0  0  0  0  0  0  0  0
   11.2151    6.1545    1.0908 H   0  0  0  0  0  0  0  0  0  0  0  0
    9.6929    6.7130    1.5238 H   0  0  0  0  0  0  0  0  0  0  0  0
    9.5559    0.4766    1.1585 H   0  0  0  0  0  0  0  0  0  0  0  0
    9.7247   -0.7096    2.3443 H   0  0  0  0  0  0  0  0  0  0  0  0
   12.1714    3.4841    2.5553 H   0  0  0  0  0  0  0  0  0  0  0  0
   12.6665    2.7994    4.0165 H   0  0  0  0  0  0  0  0  0  0  0  0
   10.6901    9.0217    4.5775 H   0  0  0  0  0  0  0  0  0  0  0  0
    9.0662    8.6643    4.3290 H   0  0  0  0  0  0  0  0  0  0  0  0
    8.2834    5.1326    6.0574 H   0  0  0  0  0  0  0  0  0  0  0  0
    9.7838    4.6023    6.6288 H   0  0  0  0  0  0  0  0  0  0  0  0
   10.9694   11.5508    7.5261 H   0  0  0  0  0  0  0  0  0  0  0  0
    9.7728   12.4480    6.7282 H   0  0  0  0  0  0  0  0  0  0  0  0
   10.0101   10.3371    5.4310 H   0  0  0  0  0  0  0  0  0  0  0  0
    8.4735   10.2746    6.1193 H   0  0  0  0  0  0  0  0  0  0  0  0
    7.6032   14.3412   11.3769 H   0  0  0  0  0  0  0  0  0  0  0  0
    6.0521   14.9968   11.3171 H   0  0  0  0  0  0  0  0  0  0  0  0
    7.3868   15.9065   10.4118 H   0  0  0  0  0  0  0  0  0  0  0  0
    7.9988   11.8521   10.3798 H   0  0  0  0  0  0  0  0  0  0  0  0
    6.7854   10.7514   10.0118 H   0  0  0  0  0  0  0  0  0  0  0  0
    6.9622   13.1943    6.8390 H   0  0  0  0  0  0  0  0  0  0  0  0
    8.6221   12.9803    6.8309 H   0  0  0  0  0  0  0  0  0  0  0  0
    5.6477   12.8555   10.7859 H   0  0  0  0  0  0  0  0  0  0  0  0
    5.2117   12.6238    9.1650 H   0  0  0  0  0  0  0  0  0  0  0  0
    8.2291   15.0401    8.2160 H   0  0  0  0  0  0  0  0  0  0  0  0
    8.8159   13.8781    9.2935 H   0  0  0  0  0  0  0  0  0  0  0  0
   11.8246   -1.0136   -0.0115 H   0  0  0  0  0  0  0  0  0  0  0  0
   12.0253   -1.9388    1.4242 H   0  0  0  0  0  0  0  0  0  0  0  0
   13.4329   -0.9530    0.8327 H   0  0  0  0  0  0  0  0  0  0  0  0
    8.0942    0.1445    4.3734 H   0  0  0  0  0  0  0  0  0  0  0  0
    7.3941    1.1538    3.1693 H   0  0  0  0  0  0  0  0  0  0  0  0
    7.9142    1.9162    4.7345 H   0  0  0  0  0  0  0  0  0  0  0  0
   14.2348    3.0594    2.9987 H   0  0  0  0  0  0  0  0  0  0  0  0
   13.9988    3.0496    1.3276 H   0  0  0  0  0  0  0  0  0  0  0  0
   15.5518    2.2742    1.9650 H   0  0  0  0  0  0  0  0  0  0  0  0
  1 22  1  0  0  0  0
  2 31  1  0  0  0  0
  2  9  1  0  0  0  0
  3 19  3  0  0  0  0
  3 24  1  0  0  0  0
  4 20  1  0  0  0  0
  4 24  1  0  0  0  0
  5 18  1  0  0  0  0
  5 17  1  0  0  0  0
  6 16  1  0  0  0  0
  6 25  1  0  0  0  0
  7 27  1  0  0  0  0
  7 29  1  0  0  0  0
  8 26  1  0  0  0  0
  8 30  1  0  0  0  0
  9 10  1  0  0  0  0
 10 23  1  0  0  0  0
 11 32  1  0  0  0  0
 12 31  1  0  0  0  0
 12 14  1  0  0  0  0
 13 31  1  0  0  0  0
 13 15  1  0  0  0  0
 14 32  1  0  0  0  0
 15 32  1  0  0  0  0
 16 36  1  0  0  0  0
 16 17  2  0  0  0  0
 17 33  1  0  0  0  0
 18 25  2  0  0  0  0
 18 34  1  0  0  0  0
 20 39  1  0  0  0  0
 20 29  1  0  0  0  0
 21 40  1  0  0  0  0
 21 25  1  0  0  0  0
 21 28  1  0  0  0  0
 22 26  1  0  0  0  0
 23 27  1  0  0  0  0
 24 28  2  0  0  0  0
 26 27  2  0  0  0  0
 28 30  1  0  0  0  0
 29 30  2  0  0  0  0
 31 37  1  0  0  0  0
 32 38  1  0  0  0  0
 35 36  1  0  0  0  0
  1 41  1  0  0  0  0
  1 42  1  0  0  0  0
  1 43  1  0  0  0  0
  2 44  1  0  0  0  0
  2 45  1  0  0  0  0
  4 46  1  0  0  0  0
  4 47  1  0  0  0  0
  5 48  1  0  0  0  0
  5 49  1  0  0  0  0
  6 50  1  0  0  0  0
  6 51  1  0  0  0  0
  7 52  1  0  0  0  0
  7 53  1  0  0  0  0
  8 54  1  0  0  0  0
  8 55  1  0  0  0  0
  9 56  1  0  0  0  0
  9 57  1  0  0  0  0
 10 58  1  0  0  0  0
 10 59  1  0  0  0  0
 11 60  1  0  0  0  0
 11 61  1  0  0  0  0
 11 62  1  0  0  0  0
 12 63  1  0  0  0  0
 12 64  1  0  0  0  0
 13 65  1  0  0  0  0
 13 66  1  0  0  0  0
 14 67  1  0  0  0  0
 14 68  1  0  0  0  0
 15 69  1  0  0  0  0
 15 70  1  0  0  0  0
 33 71  1  0  0  0  0
 33 72  1  0  0  0  0
 33 73  1  0  0  0  0
 34 74  1  0  0  0  0
 34 75  1  0  0  0  0
 34 76  1  0  0  0  0
 35 77  1  0  0  0  0
 35 78  1  0  0  0  0
 35 79  1  0  0  0  0
M  CHG  2  31   1  32   1
M  END
> <UNIQUE_SMILES>
COC1=C(C)CC(=C(C1)NC2=C(CNC3=C2CC(=C(C3)OCCC[NH+]4CC[NH+](C)CC4)OC)C#N)C

$$$$
