C22H20N4OS
APtclcactv01052014003D 0   0.00000     0.00000     1
 
 48 51  0  0  0  0  0  0  0  0999 V2000
   11.9910   -4.3920   -8.5480 C   0  0  0  0  0  0  0  0  0  0  0  0
   12.3950   -4.6870   -7.2480 C   0  0  0  0  0  0  0  0  0  0  0  0
   12.7070   -5.9470   -6.9020 N   0  0  0  0  0  0  0  0  0  0  0  0
   12.6440   -6.9380   -7.7720 C   0  0  0  0  0  0  0  0  0  0  0  0
   12.2490   -6.7120   -9.0850 C   0  0  0  0  0  0  0  0  0  0  0  0
   11.9150   -5.4210   -9.4840 C   0  0  0  0  0  0  0  0  0  0  0  0
   12.2110    1.1100   -4.3070 C   0  0  0  0  0  0  0  0  0  0  0  0
   11.9980    0.3990   -5.4860 C   0  0  0  0  0  0  0  0  0  0  0  0
   12.2170   -0.9700   -5.5240 C   0  0  0  0  0  0  0  0  0  0  0  0
   12.6480   -1.6210   -4.3770 C   0  0  0  0  0  0  0  0  0  0  0  0
   12.8540   -0.9190   -3.1980 C   0  0  0  0  0  0  0  0  0  0  0  0
   12.6380    0.4520   -3.1610 C   0  0  0  0  0  0  0  0  0  0  0  0
   12.9650   -2.9370   -4.0580 C   0  0  0  0  0  0  0  0  0  0  0  0
   13.3240   -2.9330   -2.7750 N   0  0  0  0  0  0  0  0  0  0  0  0
   13.2640   -1.8020   -2.2890 N   0  0  0  0  0  0  0  0  0  0  0  0
   12.8820   -3.9520   -5.0050 C   0  0  0  0  0  0  0  0  0  0  0  0
   12.4760   -3.6680   -6.3040 C   0  0  0  0  0  0  0  0  0  0  0  0
   10.1820    2.8690   -4.3670 C   0  0  0  0  0  0  0  0  0  0  0  0
    9.4500    1.6840   -4.3620 C   0  0  0  0  0  0  0  0  0  0  0  0
    8.0640    1.7230   -4.4310 C   0  0  0  0  0  0  0  0  0  0  0  0
    7.4040    2.9450   -4.5070 C   0  0  0  0  0  0  0  0  0  0  0  0
    8.1320    4.1290   -4.5160 C   0  0  0  0  0  0  0  0  0  0  0  0
    9.5210    4.0910   -4.4440 C   0  0  0  0  0  0  0  0  0  0  0  0
   11.9290    2.8350   -4.2670 S   0  0  0  0  0  0  0  0  0  0  0  0
   10.3260    5.3930   -4.4410 C   0  0  0  0  0  0  0  0  0  0  0  0
   11.5460    5.3880   -4.2700 O   0  0  0  0  0  0  0  0  0  0  0  0
    9.6040    6.4940   -4.6260 N   0  0  0  0  0  0  0  0  0  0  0  0
   10.3250    7.7750   -4.6290 C   0  0  0  0  0  0  0  0  0  0  0  0
   13.6170   -3.7140   -2.2270 H   0  0  0  0  0  0  0  0  0  0  0  0
    8.6120    6.4740   -4.7620 H   0  0  0  0  0  0  0  0  0  0  0  0
   11.7347   -3.3576   -8.8324 H   0  0  0  0  0  0  0  0  0  0  0  0
   12.9179   -7.9420   -7.4065 H   0  0  0  0  0  0  0  0  0  0  0  0
   12.2011   -7.5482   -9.8027 H   0  0  0  0  0  0  0  0  0  0  0  0
   11.5967   -5.2176  -10.5203 H   0  0  0  0  0  0  0  0  0  0  0  0
   11.6543    0.9226   -6.3939 H   0  0  0  0  0  0  0  0  0  0  0  0
   12.0502   -1.5350   -6.4565 H   0  0  0  0  0  0  0  0  0  0  0  0
   12.8046    1.0148   -2.2271 H   0  0  0  0  0  0  0  0  0  0  0  0
   12.2246   -4.7564   -4.6001 H   0  0  0  0  0  0  0  0  0  0  0  0
   13.8683   -4.4700   -5.0512 H   0  0  0  0  0  0  0  0  0  0  0  0
   11.4895   -3.1503   -6.2593 H   0  0  0  0  0  0  0  0  0  0  0  0
   13.1324   -2.8633   -6.7100 H   0  0  0  0  0  0  0  0  0  0  0  0
    9.9691    0.7125   -4.3033 H   0  0  0  0  0  0  0  0  0  0  0  0
    7.4871    0.7829   -4.4254 H   0  0  0  0  0  0  0  0  0  0  0  0
    6.3027    2.9752   -4.5602 H   0  0  0  0  0  0  0  0  0  0  0  0
    7.6081    5.0975   -4.5802 H   0  0  0  0  0  0  0  0  0  0  0  0
   11.1451    7.7377   -5.3835 H   0  0  0  0  0  0  0  0  0  0  0  0
   10.9144    7.8714   -3.6875 H   0  0  0  0  0  0  0  0  0  0  0  0
    9.7195    8.6983   -4.7841 H   0  0  0  0  0  0  0  0  0  0  0  0
  1  2  1  0  0  0  0
  1  6  2  0  0  0  0
  2  3  2  0  0  0  0
  2 17  1  0  0  0  0
  3  4  1  0  0  0  0
  4  5  2  0  0  0  0
  5  6  1  0  0  0  0
  7 12  2  0  0  0  0
  7  8  1  0  0  0  0
  7 24  1  0  0  0  0
  8  9  2  0  0  0  0
  9 10  1  0  0  0  0
 10 11  1  0  0  0  0
 10 13  2  0  0  0  0
 11 15  2  0  0  0  0
 11 12  1  0  0  0  0
 13 14  1  0  0  0  0
 13 16  1  0  0  0  0
 14 29  1  0  0  0  0
 14 15  1  0  0  0  0
 16 17  1  0  0  0  0
 18 23  1  0  0  0  0
 18 19  2  0  0  0  0
 18 24  1  0  0  0  0
 19 20  1  0  0  0  0
 20 21  2  0  0  0  0
 21 22  1  0  0  0  0
 22 23  2  0  0  0  0
 23 25  1  0  0  0  0
 25 26  2  0  0  0  0
 25 27  1  0  0  0  0
 27 30  1  0  0  0  0
 27 28  1  0  0  0  0
  1 31  1  0  0  0  0
  4 32  1  0  0  0  0
  5 33  1  0  0  0  0
  6 34  1  0  0  0  0
  8 35  1  0  0  0  0
  9 36  1  0  0  0  0
 12 37  1  0  0  0  0
 16 38  1  0  0  0  0
 16 39  1  0  0  0  0
 17 40  1  0  0  0  0
 17 41  1  0  0  0  0
 19 42  1  0  0  0  0
 20 43  1  0  0  0  0
 21 44  1  0  0  0  0
 22 45  1  0  0  0  0
 28 46  1  0  0  0  0
 28 47  1  0  0  0  0
 28 48  1  0  0  0  0
M  END
> <UNIQUE_SMILES>
CNC(=O)c1ccccc1Sc2ccc3c(CCc4ccccn4)[nH]nc3c2

$$$$
