C24H32N6O3
APtclcactv01052014033D 0   0.00000     0.00000     1
 
 65 69  0  0  0  0  0  0  0  0999 V2000
  -11.0780   -5.8670    4.6220 N   0  0  0  0  0  0  0  0  0  0  0  0
  -10.2640   -5.5890    5.6530 C   0  0  0  0  0  0  0  0  0  0  0  0
   -9.9870   -0.4960    3.2300 O   0  0  0  0  0  0  0  0  0  0  0  0
   -9.9480   -3.4220    4.8720 C   0  0  0  0  0  0  0  0  0  0  0  0
   -9.6950   -4.3790    5.7800 N   0  0  0  0  0  0  0  0  0  0  0  0
   -9.8360   -8.5290    8.3860 O   0  0  0  0  0  0  0  0  0  0  0  0
  -10.7930   -3.6980    3.8030 C   0  0  0  0  0  0  0  0  0  0  0  0
  -10.8760   -2.5860    3.0760 N   0  0  0  0  0  0  0  0  0  0  0  0
   -6.8080   -5.8680   10.9210 O   0  0  0  0  0  0  0  0  0  0  0  0
  -11.3550   -4.9650    3.6980 C   0  0  0  0  0  0  0  0  0  0  0  0
   -9.5680   -2.1550    4.7370 N   0  0  0  0  0  0  0  0  0  0  0  0
  -10.1310   -1.6460    3.6480 C   0  0  0  0  0  0  0  0  0  0  0  0
  -10.0690   -6.5340    6.5720 N   0  3  0  0  0  0  0  0  0  0  0  0
   -8.6630   -1.4280    5.6390 C   0  0  0  0  0  0  0  0  0  0  0  0
   -6.7780   -2.0870   12.6780 N   0  3  0  0  0  0  0  0  0  0  0  0
   -8.7480   -1.9350    7.0830 C   0  0  0  0  0  0  0  0  0  0  0  0
   -7.2920   -2.0500    7.5330 C   0  0  0  0  0  0  0  0  0  0  0  0
   -6.5510   -1.1310    6.5590 C   0  0  0  0  0  0  0  0  0  0  0  0
   -7.1940   -1.5950    5.2530 C   0  0  0  0  0  0  0  0  0  0  0  0
  -11.6660   -2.4260    1.8360 C   0  0  0  0  0  0  0  0  0  0  0  0
   -9.2660   -6.3510    7.6170 C   0  0  0  0  0  0  0  0  0  0  0  0
   -8.5770   -5.1580    7.7990 C   0  0  0  0  0  0  0  0  0  0  0  0
   -7.7560   -4.9880    8.9100 C   0  0  0  0  0  0  0  0  0  0  0  0
   -7.6240   -6.0160    9.8390 C   0  0  0  0  0  0  0  0  0  0  0  0
   -8.3190   -7.2080    9.6600 C   0  0  0  0  0  0  0  0  0  0  0  0
   -9.1370   -7.3740    8.5500 C   0  0  0  0  0  0  0  0  0  0  0  0
   -9.1360   -9.6190    8.9870 C   0  0  0  0  0  0  0  0  0  0  0  0
   -6.7990   -4.4970   11.3500 C   0  0  0  0  0  0  0  0  0  0  0  0
   -8.1430   -4.0340   11.9110 C   0  0  0  0  0  0  0  0  0  0  0  0
   -8.1010   -2.5350   12.2190 C   0  0  0  0  0  0  0  0  0  0  0  0
   -6.3890   -3.2700   13.4630 C   0  0  0  0  0  0  0  0  0  0  0  0
   -5.8280   -4.3310   12.5160 C   0  0  0  0  0  0  0  0  0  0  0  0
   -6.6790   -1.1530   13.8080 C   0  0  0  0  0  0  0  0  0  0  0  0
   -6.0370   -2.1700   12.0130 H   0  0  0  0  0  0  0  0  0  0  0  0
  -10.5440   -7.4080    6.4700 H   0  0  0  0  0  0  0  0  0  0  0  0
   -8.9928   -0.3664    5.5528 H   0  0  0  0  0  0  0  0  0  0  0  0
   -9.3370   -2.8742    7.2020 H   0  0  0  0  0  0  0  0  0  0  0  0
   -9.3825   -1.3059    7.7500 H   0  0  0  0  0  0  0  0  0  0  0  0
   -6.9006   -3.0932    7.5753 H   0  0  0  0  0  0  0  0  0  0  0  0
   -7.1199   -1.8195    8.6102 H   0  0  0  0  0  0  0  0  0  0  0  0
   -5.4373   -1.1660    6.5993 H   0  0  0  0  0  0  0  0  0  0  0  0
   -6.6061   -0.0383    6.7741 H   0  0  0  0  0  0  0  0  0  0  0  0
   -6.8643   -1.0694    4.3266 H   0  0  0  0  0  0  0  0  0  0  0  0
   -6.8919   -2.6033    4.8852 H   0  0  0  0  0  0  0  0  0  0  0  0
  -12.7119   -2.7208    2.0858 H   0  0  0  0  0  0  0  0  0  0  0  0
  -11.3359   -3.2345    1.1428 H   0  0  0  0  0  0  0  0  0  0  0  0
  -11.7355   -1.4946    1.2270 H   0  0  0  0  0  0  0  0  0  0  0  0
   -8.6819   -4.3451    7.0608 H   0  0  0  0  0  0  0  0  0  0  0  0
   -7.2108   -4.0400    9.0540 H   0  0  0  0  0  0  0  0  0  0  0  0
   -8.2215   -8.0216   10.3983 H   0  0  0  0  0  0  0  0  0  0  0  0
   -8.9015   -9.4228   10.0593 H   0  0  0  0  0  0  0  0  0  0  0  0
   -8.0925   -9.7057    8.6038 H   0  0  0  0  0  0  0  0  0  0  0  0
   -9.7091  -10.5660    8.8525 H   0  0  0  0  0  0  0  0  0  0  0  0
   -6.5273   -3.9064   10.4441 H   0  0  0  0  0  0  0  0  0  0  0  0
   -8.4516   -4.6329   12.7994 H   0  0  0  0  0  0  0  0  0  0  0  0
   -8.9891   -4.2961   11.2338 H   0  0  0  0  0  0  0  0  0  0  0  0
   -8.4441   -1.9368   11.3428 H   0  0  0  0  0  0  0  0  0  0  0  0
   -8.8943   -2.2546   12.9506 H   0  0  0  0  0  0  0  0  0  0  0  0
   -7.2258   -3.6587   14.0890 H   0  0  0  0  0  0  0  0  0  0  0  0
   -5.6814   -3.0192   14.2874 H   0  0  0  0  0  0  0  0  0  0  0  0
   -4.7901   -4.1003   12.1802 H   0  0  0  0  0  0  0  0  0  0  0  0
   -5.6097   -5.2946   13.0327 H   0  0  0  0  0  0  0  0  0  0  0  0
   -6.4641   -0.1377   13.4003 H   0  0  0  0  0  0  0  0  0  0  0  0
   -5.7390   -1.3796   14.3633 H   0  0  0  0  0  0  0  0  0  0  0  0
   -7.5060   -1.0604   14.5501 H   0  0  0  0  0  0  0  0  0  0  0  0
  1 10  2  0  0  0  0
  1  2  1  0  0  0  0
  2 13  2  0  0  0  0
  2  5  1  0  0  0  0
  3 12  2  0  0  0  0
  4 11  1  0  0  0  0
  4  5  2  0  0  0  0
  4  7  1  0  0  0  0
  6 26  1  0  0  0  0
  6 27  1  0  0  0  0
  7  8  1  0  0  0  0
  7 10  2  0  0  0  0
  8 12  1  0  0  0  0
  8 20  1  0  0  0  0
  9 24  1  0  0  0  0
  9 28  1  0  0  0  0
 11 12  1  0  0  0  0
 11 14  1  0  0  0  0
 13 35  1  0  0  0  0
 13 21  1  0  0  0  0
 14 19  1  0  0  0  0
 14 16  1  0  0  0  0
 15 34  1  0  0  0  0
 15 33  1  0  0  0  0
 15 30  1  0  0  0  0
 15 31  1  0  0  0  0
 16 17  1  0  0  0  0
 17 18  1  0  0  0  0
 18 19  1  0  0  0  0
 21 22  1  0  0  0  0
 21 26  2  0  0  0  0
 22 23  2  0  0  0  0
 23 24  1  0  0  0  0
 24 25  2  0  0  0  0
 25 26  1  0  0  0  0
 28 32  1  0  0  0  0
 28 29  1  0  0  0  0
 29 30  1  0  0  0  0
 31 32  1  0  0  0  0
 14 36  1  0  0  0  0
 16 37  1  0  0  0  0
 16 38  1  0  0  0  0
 17 39  1  0  0  0  0
 17 40  1  0  0  0  0
 18 41  1  0  0  0  0
 18 42  1  0  0  0  0
 19 43  1  0  0  0  0
 19 44  1  0  0  0  0
 20 45  1  0  0  0  0
 20 46  1  0  0  0  0
 20 47  1  0  0  0  0
 22 48  1  0  0  0  0
 23 49  1  0  0  0  0
 25 50  1  0  0  0  0
 27 51  1  0  0  0  0
 27 52  1  0  0  0  0
 27 53  1  0  0  0  0
 28 54  1  0  0  0  0
 29 55  1  0  0  0  0
 29 56  1  0  0  0  0
 30 57  1  0  0  0  0
 30 58  1  0  0  0  0
 31 59  1  0  0  0  0
 31 60  1  0  0  0  0
 32 61  1  0  0  0  0
 32 62  1  0  0  0  0
 33 63  1  0  0  0  0
 33 64  1  0  0  0  0
 33 65  1  0  0  0  0
M  CHG  2  13   1  15   1
M  END
> <UNIQUE_SMILES>
COc1cc(OC2CC[NH+](C)CC2)ccc1[NH+]=C3N=C=C4N(C)C(=O)N(C5CCCC5)C4=N3

$$$$
