C24H25N7O
APtclcactv01052014053D 0   0.00000     0.00000     1
 
 57 60  0  0  0  0  0  0  0  0999 V2000
    6.3730    7.5350   11.1090 N   0  0  0  0  0  0  0  0  0  0  0  0
    6.1920    8.5820   12.1350 C   0  0  0  0  0  0  0  0  0  0  0  0
    8.6150    8.3830    8.0600 O   0  0  0  0  0  0  0  0  0  0  0  0
    7.1380    7.6680   10.0300 C   0  0  0  0  0  0  0  0  0  0  0  0
    5.8370    6.4280   11.1430 N   0  0  0  0  0  0  0  0  0  0  0  0
    7.0380    6.5240    9.3640 C   0  0  0  0  0  0  0  0  0  0  0  0
    9.6860    5.2050    4.7220 N   0  0  0  0  0  0  0  0  0  0  0  0
    6.2190    5.7460   10.0650 C   0  0  0  0  0  0  0  0  0  0  0  0
    9.3240   -0.8300    1.9750 N   0  0  0  0  0  0  0  0  0  0  0  0
    7.6730    6.1970    8.1720 C   0  0  0  0  0  0  0  0  0  0  0  0
    8.0330    0.8630    4.7190 N   0  0  0  0  0  0  0  0  0  0  0  0
    7.5420    4.9180    7.6380 C   0  0  0  0  0  0  0  0  0  0  0  0
    8.8670    3.0310    4.7230 N   0  0  0  0  0  0  0  0  0  0  0  0
    8.2100    4.5790    6.4670 C   0  0  0  0  0  0  0  0  0  0  0  0
   11.5710    7.5370    9.3950 N   0  0  0  0  0  0  0  0  0  0  0  0
    9.0190    5.5160    5.8320 C   0  0  0  0  0  0  0  0  0  0  0  0
    9.6150    3.9980    4.1710 C   0  0  0  0  0  0  0  0  0  0  0  0
   10.3230    3.7560    3.0010 C   0  0  0  0  0  0  0  0  0  0  0  0
   10.2660    2.5050    2.4020 C   0  0  0  0  0  0  0  0  0  0  0  0
    9.4800    1.5210    2.9990 C   0  0  0  0  0  0  0  0  0  0  0  0
    9.3970    0.2120    2.4260 C   0  0  0  0  0  0  0  0  0  0  0  0
    8.7840    1.8120    4.1670 C   0  0  0  0  0  0  0  0  0  0  0  0
    7.2720    1.0900    5.9560 C   0  0  0  0  0  0  0  0  0  0  0  0
    7.7360    0.0960    7.0230 C   0  0  0  0  0  0  0  0  0  0  0  0
    6.9280    0.2700    8.3120 C   0  0  0  0  0  0  0  0  0  0  0  0
    5.4370    0.0770    8.0360 C   0  0  0  0  0  0  0  0  0  0  0  0
    4.9650    1.0580    6.9600 C   0  0  0  0  0  0  0  0  0  0  0  0
    5.7830    0.8770    5.6790 C   0  0  0  0  0  0  0  0  0  0  0  0
    9.1560    6.7880    6.3680 C   0  0  0  0  0  0  0  0  0  0  0  0
    8.4790    7.1340    7.5340 C   0  0  0  0  0  0  0  0  0  0  0  0
    9.9500    8.8680    7.8440 C   0  0  0  0  0  0  0  0  0  0  0  0
   10.8670    8.1200    8.7120 C   0  0  0  0  0  0  0  0  0  0  0  0
   10.2570    5.9040    4.2900 H   0  0  0  0  0  0  0  0  0  0  0  0
    7.9540   -0.0420    4.3050 H   0  0  0  0  0  0  0  0  0  0  0  0
    6.4558    8.1236   13.1166 H   0  0  0  0  0  0  0  0  0  0  0  0
    5.0948    8.7554   12.2318 H   0  0  0  0  0  0  0  0  0  0  0  0
    6.6777    9.5852   12.1042 H   0  0  0  0  0  0  0  0  0  0  0  0
    7.7355    8.5501    9.7447 H   0  0  0  0  0  0  0  0  0  0  0  0
    5.9120    4.7202    9.8001 H   0  0  0  0  0  0  0  0  0  0  0  0
    6.9073    4.1712    8.1440 H   0  0  0  0  0  0  0  0  0  0  0  0
    8.0982    3.5673    6.0420 H   0  0  0  0  0  0  0  0  0  0  0  0
   10.9305    4.5572    2.5476 H   0  0  0  0  0  0  0  0  0  0  0  0
   10.8299    2.2985    1.4768 H   0  0  0  0  0  0  0  0  0  0  0  0
    7.4406    2.1319    6.3154 H   0  0  0  0  0  0  0  0  0  0  0  0
    8.8327    0.1715    7.2092 H   0  0  0  0  0  0  0  0  0  0  0  0
    7.7012   -0.9549    6.6520 H   0  0  0  0  0  0  0  0  0  0  0  0
    7.1361    1.2489    8.8036 H   0  0  0  0  0  0  0  0  0  0  0  0
    7.2907   -0.4031    9.1236 H   0  0  0  0  0  0  0  0  0  0  0  0
    4.8281    0.1558    8.9667 H   0  0  0  0  0  0  0  0  0  0  0  0
    5.1964   -0.9789    7.7706 H   0  0  0  0  0  0  0  0  0  0  0  0
    4.9862    2.1127    7.3211 H   0  0  0  0  0  0  0  0  0  0  0  0
    3.8699    0.9706    6.7696 H   0  0  0  0  0  0  0  0  0  0  0  0
    5.5885   -0.1109    5.2000 H   0  0  0  0  0  0  0  0  0  0  0  0
    5.4166    1.5359    4.8575 H   0  0  0  0  0  0  0  0  0  0  0  0
    9.8045    7.5257    5.8661 H   0  0  0  0  0  0  0  0  0  0  0  0
   10.0318    9.9709    7.9860 H   0  0  0  0  0  0  0  0  0  0  0  0
   10.2502    8.8286    6.7709 H   0  0  0  0  0  0  0  0  0  0  0  0
  1  5  1  0  0  0  0
  1  4  1  0  0  0  0
  1  2  1  0  0  0  0
  3 30  1  0  0  0  0
  3 31  1  0  0  0  0
  4  6  2  0  0  0  0
  5  8  2  0  0  0  0
  6  8  1  0  0  0  0
  6 10  1  0  0  0  0
  7 33  1  0  0  0  0
  7 17  1  0  0  0  0
  7 16  1  0  0  0  0
  9 21  3  0  0  0  0
 10 30  1  0  0  0  0
 10 12  2  0  0  0  0
 11 34  1  0  0  0  0
 11 22  1  0  0  0  0
 11 23  1  0  0  0  0
 12 14  1  0  0  0  0
 13 17  1  0  0  0  0
 13 22  2  0  0  0  0
 14 16  2  0  0  0  0
 15 32  3  0  0  0  0
 16 29  1  0  0  0  0
 17 18  2  0  0  0  0
 18 19  1  0  0  0  0
 19 20  2  0  0  0  0
 20 22  1  0  0  0  0
 20 21  1  0  0  0  0
 23 28  1  0  0  0  0
 23 24  1  0  0  0  0
 24 25  1  0  0  0  0
 25 26  1  0  0  0  0
 26 27  1  0  0  0  0
 27 28  1  0  0  0  0
 29 30  2  0  0  0  0
 31 32  1  0  0  0  0
  2 35  1  0  0  0  0
  2 36  1  0  0  0  0
  2 37  1  0  0  0  0
  4 38  1  0  0  0  0
  8 39  1  0  0  0  0
 12 40  1  0  0  0  0
 14 41  1  0  0  0  0
 18 42  1  0  0  0  0
 19 43  1  0  0  0  0
 23 44  1  0  0  0  0
 24 45  1  0  0  0  0
 24 46  1  0  0  0  0
 25 47  1  0  0  0  0
 25 48  1  0  0  0  0
 26 49  1  0  0  0  0
 26 50  1  0  0  0  0
 27 51  1  0  0  0  0
 27 52  1  0  0  0  0
 28 53  1  0  0  0  0
 28 54  1  0  0  0  0
 29 55  1  0  0  0  0
 31 56  1  0  0  0  0
 31 57  1  0  0  0  0
M  END
> <UNIQUE_SMILES>
Cn1cc(cn1)c2ccc(Nc3ccc(C#N)c(NC4CCCCC4)n3)cc2OCC#N

$$$$
