C22H18N4OS
APtclcactv01162015433D 0   0.00000     0.00000     1
 
 46 49  0  0  0  0  0  0  0  0999 V2000
   26.8710  124.6810    9.8590 C   0  0  0  0  0  0  0  0  0  0  0  0
   27.2380  124.0220   11.0240 C   0  0  0  0  0  0  0  0  0  0  0  0
   27.8850  122.8410   10.9660 N   0  0  0  0  0  0  0  0  0  0  0  0
   28.1970  122.2510    9.7900 C   0  0  0  0  0  0  0  0  0  0  0  0
   27.8500  122.8780    8.6010 C   0  0  0  0  0  0  0  0  0  0  0  0
   27.1890  124.0980    8.6300 C   0  0  0  0  0  0  0  0  0  0  0  0
   24.9600  127.2190   17.0740 C   0  0  0  0  0  0  0  0  0  0  0  0
   24.8620  127.3260   15.6720 C   0  0  0  0  0  0  0  0  0  0  0  0
   25.5300  126.3970   14.8310 C   0  0  0  0  0  0  0  0  0  0  0  0
   26.3050  125.3570   15.4380 C   0  0  0  0  0  0  0  0  0  0  0  0
   26.3980  125.2720   16.8160 C   0  0  0  0  0  0  0  0  0  0  0  0
   25.7140  126.2090   17.6660 C   0  0  0  0  0  0  0  0  0  0  0  0
   27.0970  124.2770   14.9060 C   0  0  0  0  0  0  0  0  0  0  0  0
   27.6060  123.5990   15.9540 N   0  0  0  0  0  0  0  0  0  0  0  0
   27.1840  124.1780   17.1260 N   0  0  0  0  0  0  0  0  0  0  0  0
   27.3390  123.8990   13.4720 C   0  0  0  0  0  0  0  0  0  0  0  0
   26.9370  124.6180   12.3720 C   0  0  0  0  0  0  0  0  0  0  0  0
   22.3890  128.3520   17.6750 C   0  0  0  0  0  0  0  0  0  0  0  0
   21.8930  127.3390   16.8620 C   0  0  0  0  0  0  0  0  0  0  0  0
   20.5410  127.3240   16.4900 C   0  0  0  0  0  0  0  0  0  0  0  0
   19.7020  128.3450   16.9480 C   0  0  0  0  0  0  0  0  0  0  0  0
   20.2050  129.3620   17.7580 C   0  0  0  0  0  0  0  0  0  0  0  0
   21.5500  129.3810   18.1230 C   0  0  0  0  0  0  0  0  0  0  0  0
   24.1140  128.3820   18.1480 S   0  0  0  0  0  0  0  0  0  0  0  0
   22.0790  130.4640   19.0140 C   0  0  0  0  0  0  0  0  0  0  0  0
   22.6350  130.1790   20.0690 O   0  0  0  0  0  0  0  0  0  0  0  0
   21.9110  131.8420   18.6780 N   0  0  0  0  0  0  0  0  0  0  0  0
   22.4140  132.8630   19.5840 C   0  0  0  0  0  0  0  0  0  0  0  0
   26.3389  125.6459    9.9087 H   0  0  0  0  0  0  0  0  0  0  0  0
   28.7222  121.2811    9.8004 H   0  0  0  0  0  0  0  0  0  0  0  0
   28.0991  122.4076    7.6349 H   0  0  0  0  0  0  0  0  0  0  0  0
   26.9190  124.5994    7.6854 H   0  0  0  0  0  0  0  0  0  0  0  0
   24.2608  128.1392   15.2317 H   0  0  0  0  0  0  0  0  0  0  0  0
   25.4490  126.4811   13.7342 H   0  0  0  0  0  0  0  0  0  0  0  0
   25.7674  126.1533   18.7663 H   0  0  0  0  0  0  0  0  0  0  0  0
   27.4145  123.8519   18.0646 H   0  0  0  0  0  0  0  0  0  0  0  0
   27.8791  122.9790   13.1919 H   0  0  0  0  0  0  0  0  0  0  0  0
   26.4240  125.5775   12.5530 H   0  0  0  0  0  0  0  0  0  0  0  0
   22.5738  126.5452   16.5112 H   0  0  0  0  0  0  0  0  0  0  0  0
   20.1434  126.5211   15.8467 H   0  0  0  0  0  0  0  0  0  0  0  0
   18.6351  128.3482   16.6682 H   0  0  0  0  0  0  0  0  0  0  0  0
   19.5318  130.1600   18.1138 H   0  0  0  0  0  0  0  0  0  0  0  0
   21.4410  132.0921   17.8080 H   0  0  0  0  0  0  0  0  0  0  0  0
   23.4960  132.6711   19.7726 H   0  0  0  0  0  0  0  0  0  0  0  0
   21.9803  132.6870   20.5960 H   0  0  0  0  0  0  0  0  0  0  0  0
   22.2828  133.9388   19.3217 H   0  0  0  0  0  0  0  0  0  0  0  0
  1  2  1  0  0  0  0
  1  6  2  0  0  0  0
  2  3  2  0  0  0  0
  2 17  1  0  0  0  0
  3  4  1  0  0  0  0
  4  5  2  0  0  0  0
  5  6  1  0  0  0  0
  7  8  2  0  0  0  0
  7 12  1  0  0  0  0
  7 24  1  0  0  0  0
  8  9  1  0  0  0  0
  9 10  2  0  0  0  0
 10 11  1  0  0  0  0
 10 13  1  0  0  0  0
 11 12  2  0  0  0  0
 11 15  1  0  0  0  0
 13 14  2  0  0  0  0
 13 16  1  0  0  0  0
 14 15  1  0  0  0  0
 16 17  2  0  0  0  0
 18 19  1  0  0  0  0
 18 23  2  0  0  0  0
 18 24  1  0  0  0  0
 19 20  2  0  0  0  0
 20 21  1  0  0  0  0
 21 22  2  0  0  0  0
 22 23  1  0  0  0  0
 23 25  1  0  0  0  0
 25 26  2  0  0  0  0
 25 27  1  0  0  0  0
 27 28  1  0  0  0  0
  1 29  1  0  0  0  0
  4 30  1  0  0  0  0
  5 31  1  0  0  0  0
  6 32  1  0  0  0  0
  8 33  1  0  0  0  0
  9 34  1  0  0  0  0
 12 35  1  0  0  0  0
 15 36  1  0  0  0  0
 16 37  1  0  0  0  0
 17 38  1  0  0  0  0
 19 39  1  0  0  0  0
 20 40  1  0  0  0  0
 21 41  1  0  0  0  0
 22 42  1  0  0  0  0
 27 43  1  0  0  0  0
 28 44  1  0  0  0  0
 28 45  1  0  0  0  0
 28 46  1  0  0  0  0
M  END
> <UNIQUE_SMILES>
CNC(=O)c1ccccc1Sc2ccc3c([nH]nc3\C=C\c4ccccn4)c2

$$$$
