C21H19FN6O2
APtclcactv01172009243D 0   0.00000     0.00000     1
 
 49 52  0  0  1  0  0  0  0  0999 V2000
   -9.8830    5.6140   -3.4800 C   0  0  0  0  0  0  0  0  0  0  0  0
  -10.5900    6.5770   -2.7740 C   0  0  0  0  0  0  0  0  0  0  0  0
  -10.6640    7.8370   -3.2240 N   0  0  0  0  0  0  0  0  0  0  0  0
  -10.0640    8.2010   -4.3430 C   0  0  0  0  0  0  0  0  0  0  0  0
   -9.3360    7.2880   -5.1000 C   0  0  0  0  0  0  0  0  0  0  0  0
   -9.2430    5.9700   -4.6620 C   0  0  0  0  0  0  0  0  0  0  0  0
   -9.8320    4.3480   -2.9860 O   0  0  0  0  0  0  0  0  0  0  0  0
   -9.7380    3.3610   -4.0260 C   0  0  2  0  0  0  0  0  0  0  0  0
  -10.5000    2.1010   -3.6140 C   0  0  0  0  0  0  0  0  0  0  0  0
   -8.2670    3.0130   -4.2600 C   0  0  0  0  0  0  0  0  0  0  0  0
   -7.7440    3.0560   -5.5450 C   0  0  0  0  0  0  0  0  0  0  0  0
   -6.4010    2.7640   -5.7570 C   0  0  0  0  0  0  0  0  0  0  0  0
   -5.5840    2.4300   -4.6850 C   0  0  0  0  0  0  0  0  0  0  0  0
   -6.1110    2.3870   -3.3960 C   0  0  0  0  0  0  0  0  0  0  0  0
   -7.4540    2.6750   -3.1840 C   0  0  0  0  0  0  0  0  0  0  0  0
  -11.2090    6.2470   -1.6460 N   0  0  0  0  0  0  0  0  0  0  0  0
   -8.7350    7.7200   -6.2750 C   0  0  0  0  0  0  0  0  0  0  0  0
   -8.7930    8.9120   -6.9820 C   0  0  0  0  0  0  0  0  0  0  0  0
   -8.0080    8.7690   -8.0440 N   0  0  0  0  0  0  0  0  0  0  0  0
   -7.4870    7.6530   -8.0790 N   0  0  0  0  0  0  0  0  0  0  0  0
   -7.8760    6.9310   -7.0280 C   0  0  0  0  0  0  0  0  0  0  0  0
   -9.5660   10.0480   -6.5760 C   0  0  0  0  0  0  0  0  0  0  0  0
  -10.1800   10.9530   -6.2590 N   0  0  0  0  0  0  0  0  0  0  0  0
   -7.8010    9.8190   -9.0640 C   0  0  0  0  0  0  0  0  0  0  0  0
   -8.4740    4.5780   -7.2660 N   0  0  0  0  0  0  0  0  0  0  0  0
   -8.6630    3.3780   -6.7210 C   0  0  0  0  0  0  0  0  0  0  0  0
   -7.4510    5.4910   -6.7330 C   0  0  0  0  0  0  0  0  0  0  0  0
   -9.3400    4.9040   -8.4070 C   0  0  0  0  0  0  0  0  0  0  0  0
   -9.5270    2.5860   -7.0910 O   0  0  0  0  0  0  0  0  0  0  0  0
   -5.3200    2.0570   -2.3550 F   0  0  0  0  0  0  0  0  0  0  0  0
  -11.7210    6.9400   -1.1370 H   0  0  0  0  0  0  0  0  0  0  0  0
  -11.1630    5.3080   -1.3030 H   0  0  0  0  0  0  0  0  0  0  0  0
  -10.1699    9.2573   -4.6424 H   0  0  0  0  0  0  0  0  0  0  0  0
   -8.6736    5.2227   -5.2399 H   0  0  0  0  0  0  0  0  0  0  0  0
  -10.1823    3.7681   -4.9641 H   0  0  0  0  0  0  0  0  0  0  0  0
  -11.5579    2.3216   -3.3396 H   0  0  0  0  0  0  0  0  0  0  0  0
  -10.1568    1.7065   -2.6292 H   0  0  0  0  0  0  0  0  0  0  0  0
  -10.4271    1.3351   -4.4210 H   0  0  0  0  0  0  0  0  0  0  0  0
   -5.9831    2.7974   -6.7772 H   0  0  0  0  0  0  0  0  0  0  0  0
   -4.5192    2.1994   -4.8569 H   0  0  0  0  0  0  0  0  0  0  0  0
   -7.8735    2.6354   -2.1646 H   0  0  0  0  0  0  0  0  0  0  0  0
   -7.4621   10.7355   -8.5269 H   0  0  0  0  0  0  0  0  0  0  0  0
   -8.8085   10.1152   -9.4386 H   0  0  0  0  0  0  0  0  0  0  0  0
   -7.1421    9.6990   -9.9554 H   0  0  0  0  0  0  0  0  0  0  0  0
   -7.2489    5.3194   -5.6500 H   0  0  0  0  0  0  0  0  0  0  0  0
   -6.4307    5.2600   -7.1187 H   0  0  0  0  0  0  0  0  0  0  0  0
  -10.4102    4.7816   -8.1191 H   0  0  0  0  0  0  0  0  0  0  0  0
   -9.2526    4.1136   -9.1885 H   0  0  0  0  0  0  0  0  0  0  0  0
   -9.1817    5.9089   -8.8634 H   0  0  0  0  0  0  0  0  0  0  0  0
  1  7  1  0  0  0  0
  1  2  1  0  0  0  0
  1  6  2  0  0  0  0
  2 16  1  0  0  0  0
  2  3  2  0  0  0  0
  3  4  1  0  0  0  0
  4  5  2  0  0  0  0
  5 17  1  0  0  0  0
  5  6  1  0  0  0  0
  7  8  1  0  0  0  0
  8  9  1  0  0  0  0
  8 10  1  0  0  0  0
 10 11  1  0  0  0  0
 10 15  2  0  0  0  0
 11 12  2  0  0  0  0
 11 26  1  0  0  0  0
 12 13  1  0  0  0  0
 13 14  2  0  0  0  0
 14 30  1  0  0  0  0
 14 15  1  0  0  0  0
 16 31  1  0  0  0  0
 16 32  1  0  0  0  0
 17 18  2  0  0  0  0
 17 21  1  0  0  0  0
 18 19  1  0  0  0  0
 18 22  1  0  0  0  0
 19 20  1  0  0  0  0
 19 24  1  0  0  0  0
 20 21  2  0  0  0  0
 21 27  1  0  0  0  0
 22 23  3  0  0  0  0
 25 26  1  0  0  0  0
 25 28  1  0  0  0  0
 25 27  1  0  0  0  0
 26 29  2  0  0  0  0
  4 33  1  0  0  0  0
  6 34  1  0  0  0  0
  8 35  1  0  0  0  0
  9 36  1  0  0  0  0
  9 37  1  0  0  0  0
  9 38  1  0  0  0  0
 12 39  1  0  0  0  0
 13 40  1  0  0  0  0
 15 41  1  0  0  0  0
 24 42  1  0  0  0  0
 24 43  1  0  0  0  0
 24 44  1  0  0  0  0
 27 45  1  0  0  0  0
 27 46  1  0  0  0  0
 28 47  1  0  0  0  0
 28 48  1  0  0  0  0
 28 49  1  0  0  0  0
M  END
> <UNIQUE_SMILES>
CC1Oc2cc(cnc2N)c3c(CN(C)C(=O)c4ccc(F)cc14)nn(C)c3C#N

> <KDEEP_PKD>
7.288814544677734

> <KDEEP_DG>
-9.84

$$$$
