C18H23N6O3S
APtclcactv01172009253D 0   0.00000     0.00000     1
 
 51 54  0  0  0  0  0  0  0  0999 V2000
  -13.3370   -4.6700    4.2650 N   0  0  0  0  0  0  0  0  0  0  0  0
  -14.1130   -5.6810    3.8470 C   0  0  0  0  0  0  0  0  0  0  0  0
  -14.1420   -6.8310    4.5210 N   0  0  0  0  0  0  0  0  0  0  0  0
  -14.8690   -5.5640    2.7470 N   0  0  0  0  0  0  0  0  0  0  0  0
  -14.8700   -4.4250    2.0390 C   0  0  0  0  0  0  0  0  0  0  0  0
  -14.0740   -3.3640    2.4510 C   0  0  0  0  0  0  0  0  0  0  0  0
  -13.2990   -3.5120    3.5910 C   0  0  0  0  0  0  0  0  0  0  0  0
  -12.4990   -2.4940    4.0090 O   0  0  0  0  0  0  0  0  0  0  0  0
  -14.2550   -2.3750    1.5780 N   0  0  0  0  0  0  0  0  0  0  0  0
  -15.1230   -2.7910    0.6600 C   0  0  0  0  0  0  0  0  0  0  0  0
  -15.4990   -4.0400    0.9340 N   0  0  0  0  0  0  0  0  0  0  0  0
  -12.3570   -2.5360    5.4360 C   0  0  0  0  0  0  0  0  0  0  0  0
  -11.5010   -1.3510    5.8890 C   0  0  0  0  0  0  0  0  0  0  0  0
  -10.1190   -1.4020    5.2350 C   0  0  0  0  0  0  0  0  0  0  0  0
   -9.2610   -0.2180    5.6840 C   0  0  0  0  0  0  0  0  0  0  0  0
   -9.1120   -0.2150    7.2060 C   0  0  0  0  0  0  0  0  0  0  0  0
  -10.4910   -0.1690    7.8700 C   0  0  0  0  0  0  0  0  0  0  0  0
  -11.3450   -1.3520    7.4110 C   0  0  0  0  0  0  0  0  0  0  0  0
  -13.4100   -7.0170    5.6160 C   0  0  0  0  0  0  0  0  0  0  0  0
  -12.5810   -6.0130    6.1080 C   0  0  0  0  0  0  0  0  0  0  0  0
  -11.8340   -6.2260    7.2600 C   0  0  0  0  0  0  0  0  0  0  0  0
  -11.9200   -7.4430    7.9300 C   0  0  0  0  0  0  0  0  0  0  0  0
  -12.7500   -8.4430    7.4440 C   0  0  0  0  0  0  0  0  0  0  0  0
  -13.4870   -8.2340    6.2850 C   0  0  0  0  0  0  0  0  0  0  0  0
  -11.0130   -7.7170    9.4020 S   0  0  0  0  0  0  0  0  0  0  0  0
  -10.2520   -9.0070    9.2740 O   0  0  0  0  0  0  0  0  0  0  0  0
  -11.9780   -7.8510   10.5460 O   0  0  0  0  0  0  0  0  0  0  0  0
   -9.9870   -6.4770    9.6840 N   0  3  0  0  0  0  0  0  0  0  0  0
   -9.1260   -6.9830    9.6460 H   0  0  0  0  0  0  0  0  0  0  0  0
   -9.8770   -6.1410   10.6190 H   0  0  0  0  0  0  0  0  0  0  0  0
   -9.8210   -5.8860    8.8930 H   0  0  0  0  0  0  0  0  0  0  0  0
  -14.7240   -7.5730    4.1910 H   0  0  0  0  0  0  0  0  0  0  0  0
  -13.8190   -1.4770    1.6120 H   0  0  0  0  0  0  0  0  0  0  0  0
  -15.4765   -2.1925   -0.1964 H   0  0  0  0  0  0  0  0  0  0  0  0
  -11.9531   -3.5119    5.7933 H   0  0  0  0  0  0  0  0  0  0  0  0
  -13.3410   -2.5727    5.9591 H   0  0  0  0  0  0  0  0  0  0  0  0
  -12.0179   -0.4144    5.5746 H   0  0  0  0  0  0  0  0  0  0  0  0
  -10.1905   -1.4617    4.1239 H   0  0  0  0  0  0  0  0  0  0  0  0
   -9.6093   -2.3756    5.4233 H   0  0  0  0  0  0  0  0  0  0  0  0
   -9.6594    0.7515    5.3038 H   0  0  0  0  0  0  0  0  0  0  0  0
   -8.2718   -0.2033    5.1698 H   0  0  0  0  0  0  0  0  0  0  0  0
   -8.4514    0.6110    7.5588 H   0  0  0  0  0  0  0  0  0  0  0  0
   -8.5036   -1.0767    7.5673 H   0  0  0  0  0  0  0  0  0  0  0  0
  -11.0036    0.8055    7.6946 H   0  0  0  0  0  0  0  0  0  0  0  0
  -10.4149   -0.1187    8.9813 H   0  0  0  0  0  0  0  0  0  0  0  0
  -10.9407   -2.3220    7.7837 H   0  0  0  0  0  0  0  0  0  0  0  0
  -12.3332   -1.3724    7.9271 H   0  0  0  0  0  0  0  0  0  0  0  0
  -12.5158   -5.0451    5.5831 H   0  0  0  0  0  0  0  0  0  0  0  0
  -11.1734   -5.4297    7.6423 H   0  0  0  0  0  0  0  0  0  0  0  0
  -12.8240   -9.4046    7.9793 H   0  0  0  0  0  0  0  0  0  0  0  0
  -14.1352   -9.0366    5.8948 H   0  0  0  0  0  0  0  0  0  0  0  0
  1  7  1  0  0  0  0
  1  2  2  0  0  0  0
  2  3  1  0  0  0  0
  2  4  1  0  0  0  0
  3 32  1  0  0  0  0
  3 19  1  0  0  0  0
  4  5  2  0  0  0  0
  5 11  1  0  0  0  0
  5  6  1  0  0  0  0
  6  9  1  0  0  0  0
  6  7  2  0  0  0  0
  7  8  1  0  0  0  0
  8 12  1  0  0  0  0
  9 33  1  0  0  0  0
  9 10  1  0  0  0  0
 10 11  2  0  0  0  0
 12 13  1  0  0  0  0
 13 14  1  0  0  0  0
 13 18  1  0  0  0  0
 14 15  1  0  0  0  0
 15 16  1  0  0  0  0
 16 17  1  0  0  0  0
 17 18  1  0  0  0  0
 19 24  1  0  0  0  0
 19 20  2  0  0  0  0
 20 21  1  0  0  0  0
 21 22  2  0  0  0  0
 22 23  1  0  0  0  0
 22 25  1  0  0  0  0
 23 24  2  0  0  0  0
 25 27  2  0  0  0  0
 25 26  2  0  0  0  0
 25 28  1  0  0  0  0
 28 29  1  0  0  0  0
 28 30  1  0  0  0  0
 28 31  1  0  0  0  0
 10 34  1  0  0  0  0
 12 35  1  0  0  0  0
 12 36  1  0  0  0  0
 13 37  1  0  0  0  0
 14 38  1  0  0  0  0
 14 39  1  0  0  0  0
 15 40  1  0  0  0  0
 15 41  1  0  0  0  0
 16 42  1  0  0  0  0
 16 43  1  0  0  0  0
 17 44  1  0  0  0  0
 17 45  1  0  0  0  0
 18 46  1  0  0  0  0
 18 47  1  0  0  0  0
 20 48  1  0  0  0  0
 21 49  1  0  0  0  0
 23 50  1  0  0  0  0
 24 51  1  0  0  0  0
M  CHG  1  28   1
M  END
> <UNIQUE_SMILES>
[NH3+][S](=O)(=O)c1ccc(Nc2nc(OCC3CCCCC3)c4[nH]cnc4n2)cc1

> <KDEEP_PKD>
6.6483073234558105

> <KDEEP_DG>
-8.98

$$$$
