C22H20N4OS
APtclcactv01172009273D 0   0.00000     0.00000     1
 
 48 51  0  0  0  0  0  0  0  0999 V2000
    9.7170   -6.8190   -8.0180 C   0  0  0  0  0  0  0  0  0  0  0  0
   10.1400   -7.3480   -6.8020 C   0  0  0  0  0  0  0  0  0  0  0  0
   10.4480   -8.6490   -6.6960 N   0  0  0  0  0  0  0  0  0  0  0  0
   10.3600   -9.4640   -7.7300 C   0  0  0  0  0  0  0  0  0  0  0  0
    9.9430   -8.9990   -8.9720 C   0  0  0  0  0  0  0  0  0  0  0  0
    9.6140   -7.6560   -9.1210 C   0  0  0  0  0  0  0  0  0  0  0  0
   10.0660   -2.2900   -2.6520 C   0  0  0  0  0  0  0  0  0  0  0  0
    9.8690   -2.7070   -3.9650 C   0  0  0  0  0  0  0  0  0  0  0  0
   10.0640   -4.0380   -4.3150 C   0  0  0  0  0  0  0  0  0  0  0  0
   10.4560   -4.9480   -3.3430 C   0  0  0  0  0  0  0  0  0  0  0  0
   10.6500   -4.5420   -2.0320 C   0  0  0  0  0  0  0  0  0  0  0  0
   10.4540   -3.2070   -1.6810 C   0  0  0  0  0  0  0  0  0  0  0  0
   10.7450   -6.3060   -3.3270 C   0  0  0  0  0  0  0  0  0  0  0  0
   11.0770   -6.6030   -2.0740 N   0  0  0  0  0  0  0  0  0  0  0  0
   11.0280   -5.6160   -1.3380 N   0  0  0  0  0  0  0  0  0  0  0  0
   10.6370   -7.0850   -4.4730 C   0  0  0  0  0  0  0  0  0  0  0  0
   10.2320   -6.5290   -5.6810 C   0  0  0  0  0  0  0  0  0  0  0  0
    8.3670   -0.1990   -2.9670 C   0  0  0  0  0  0  0  0  0  0  0  0
    7.4780   -1.2010   -3.3460 C   0  0  0  0  0  0  0  0  0  0  0  0
    6.2650   -0.8650   -3.9340 C   0  0  0  0  0  0  0  0  0  0  0  0
    5.9380    0.4660   -4.1460 C   0  0  0  0  0  0  0  0  0  0  0  0
    6.8250    1.4710   -3.7720 C   0  0  0  0  0  0  0  0  0  0  0  0
    8.0400    1.1350   -3.1820 C   0  0  0  0  0  0  0  0  0  0  0  0
    9.8990   -0.6020   -2.2200 S   0  0  0  0  0  0  0  0  0  0  0  0
    9.0230    2.2360   -2.7750 C   0  0  0  0  0  0  0  0  0  0  0  0
   10.0900    1.9570   -2.2240 O   0  0  0  0  0  0  0  0  0  0  0  0
    8.6400    3.4750   -3.0660 N   0  0  0  0  0  0  0  0  0  0  0  0
    9.5590    4.5600   -2.6890 C   0  0  0  0  0  0  0  0  0  0  0  0
   11.3560   -7.4960   -1.7200 H   0  0  0  0  0  0  0  0  0  0  0  0
    7.7740    3.6880   -3.5230 H   0  0  0  0  0  0  0  0  0  0  0  0
    9.4662   -5.7485   -8.1066 H   0  0  0  0  0  0  0  0  0  0  0  0
   10.6312  -10.5193   -7.5585 H   0  0  0  0  0  0  0  0  0  0  0  0
    9.8739   -9.6884   -9.8302 H   0  0  0  0  0  0  0  0  0  0  0  0
    9.2779   -7.2624  -10.0950 H   0  0  0  0  0  0  0  0  0  0  0  0
    9.5567   -1.9788   -4.7323 H   0  0  0  0  0  0  0  0  0  0  0  0
    9.9089   -4.3694   -5.3556 H   0  0  0  0  0  0  0  0  0  0  0  0
   10.6053   -2.8776   -0.6393 H   0  0  0  0  0  0  0  0  0  0  0  0
    9.9649   -7.9450   -4.2450 H   0  0  0  0  0  0  0  0  0  0  0  0
   11.6141   -7.5963   -4.6375 H   0  0  0  0  0  0  0  0  0  0  0  0
    9.2540   -6.0151   -5.5301 H   0  0  0  0  0  0  0  0  0  0  0  0
   10.8963   -5.6660   -5.9200 H   0  0  0  0  0  0  0  0  0  0  0  0
    7.7347   -2.2609   -3.1804 H   0  0  0  0  0  0  0  0  0  0  0  0
    5.5591   -1.6578   -4.2336 H   0  0  0  0  0  0  0  0  0  0  0  0
    4.9725    0.7253   -4.6120 H   0  0  0  0  0  0  0  0  0  0  0  0
    6.5661    2.5295   -3.9425 H   0  0  0  0  0  0  0  0  0  0  0  0
   10.5647    4.3672   -3.1302 H   0  0  0  0  0  0  0  0  0  0  0  0
    9.7947    4.4882   -1.6016 H   0  0  0  0  0  0  0  0  0  0  0  0
    9.2377    5.5994   -2.9331 H   0  0  0  0  0  0  0  0  0  0  0  0
  1  6  2  0  0  0  0
  1  2  1  0  0  0  0
  2  3  2  0  0  0  0
  2 17  1  0  0  0  0
  3  4  1  0  0  0  0
  4  5  2  0  0  0  0
  5  6  1  0  0  0  0
  7 12  2  0  0  0  0
  7  8  1  0  0  0  0
  7 24  1  0  0  0  0
  8  9  2  0  0  0  0
  9 10  1  0  0  0  0
 10 11  1  0  0  0  0
 10 13  2  0  0  0  0
 11 15  2  0  0  0  0
 11 12  1  0  0  0  0
 13 14  1  0  0  0  0
 13 16  1  0  0  0  0
 14 29  1  0  0  0  0
 14 15  1  0  0  0  0
 16 17  1  0  0  0  0
 18 23  1  0  0  0  0
 18 19  2  0  0  0  0
 18 24  1  0  0  0  0
 19 20  1  0  0  0  0
 20 21  2  0  0  0  0
 21 22  1  0  0  0  0
 22 23  2  0  0  0  0
 23 25  1  0  0  0  0
 25 26  2  0  0  0  0
 25 27  1  0  0  0  0
 27 30  1  0  0  0  0
 27 28  1  0  0  0  0
  1 31  1  0  0  0  0
  4 32  1  0  0  0  0
  5 33  1  0  0  0  0
  6 34  1  0  0  0  0
  8 35  1  0  0  0  0
  9 36  1  0  0  0  0
 12 37  1  0  0  0  0
 16 38  1  0  0  0  0
 16 39  1  0  0  0  0
 17 40  1  0  0  0  0
 17 41  1  0  0  0  0
 19 42  1  0  0  0  0
 20 43  1  0  0  0  0
 21 44  1  0  0  0  0
 22 45  1  0  0  0  0
 28 46  1  0  0  0  0
 28 47  1  0  0  0  0
 28 48  1  0  0  0  0
M  END
> <UNIQUE_SMILES>
CNC(=O)c1ccccc1Sc2ccc3c(CCc4ccccn4)[nH]nc3c2

> <KDEEP_PKD>
6.646561145782471

> <KDEEP_DG>
-8.97

$$$$
