C28H31N5O4
APtclcactv01052012503D 0   0.00000     0.00000     1
 
 68 71  0  0  1  0  0  0  0  0999 V2000
   10.4740   42.6110    5.4030 N   0  0  0  0  0  0  0  0  0  0  0  0
   10.2090   41.3170    5.5390 C   0  0  0  0  0  0  0  0  0  0  0  0
   10.0960   40.7380    6.8000 C   0  0  0  0  0  0  0  0  0  0  0  0
   10.2490   41.4880    7.9680 C   0  0  0  0  0  0  0  0  0  0  0  0
   10.5300   42.8480    7.7990 C   0  0  0  0  0  0  0  0  0  0  0  0
   10.6380   43.3550    6.5060 C   0  0  0  0  0  0  0  0  0  0  0  0
   10.1020   40.8510    9.2840 C   0  0  0  0  0  0  0  0  0  0  0  0
   10.0720   39.6130    9.4250 O   0  0  0  0  0  0  0  0  0  0  0  0
    9.9370   41.6510   10.4070 N   0  0  0  0  0  0  0  0  0  0  0  0
    9.3990   41.1270   11.6700 C   0  0  2  0  0  0  0  0  0  0  0  0
    7.9570   41.6440   11.8140 C   0  0  0  0  0  0  0  0  0  0  0  0
    7.3140   41.0610   13.0440 N   0  0  0  0  0  0  0  0  0  0  0  0
    7.5170   41.9130   14.2990 C   0  0  0  0  0  0  0  0  0  0  0  0
    8.9340   41.8200   14.8670 C   0  0  0  0  0  0  0  0  0  0  0  0
    9.9800   42.4120   13.9090 C   0  0  0  0  0  0  0  0  0  0  0  0
   10.4410   41.4570   12.7840 C   0  0  1  0  0  0  0  0  0  0  0  0
   10.9590   40.1770   13.3160 N   0  0  0  0  0  0  0  0  0  0  0  0
   12.1220   40.1060   14.0600 C   0  0  0  0  0  0  0  0  0  0  0  0
   12.8560   41.0850   14.1060 O   0  0  0  0  0  0  0  0  0  0  0  0
   12.4330   38.8970   14.8490 C   0  0  0  0  0  0  0  0  0  0  0  0
   13.7470   38.6670   15.3180 C   0  0  0  0  0  0  0  0  0  0  0  0
   14.0360   37.5560   16.0970 C   0  0  0  0  0  0  0  0  0  0  0  0
   13.0190   36.6430   16.4290 C   0  0  0  0  0  0  0  0  0  0  0  0
   11.7310   36.8840   15.9670 C   0  0  0  0  0  0  0  0  0  0  0  0
   11.4330   37.9930   15.1920 C   0  0  0  0  0  0  0  0  0  0  0  0
   13.3100   35.5040   17.2950 C   0  0  0  0  0  0  0  0  0  0  0  0
   14.2690   35.6380   18.0900 O   0  0  0  0  0  0  0  0  0  0  0  0
   12.5680   34.2790   17.3660 C   0  0  0  0  0  0  0  0  0  0  0  0
   12.4150   33.4450   16.2240 C   0  0  0  0  0  0  0  0  0  0  0  0
   11.6880   32.2340   16.3820 C   0  0  0  0  0  0  0  0  0  0  0  0
   11.1520   31.8950   17.6050 C   0  0  0  0  0  0  0  0  0  0  0  0
   11.3170   32.7300   18.7380 C   0  0  0  0  0  0  0  0  0  0  0  0
   12.0210   33.9220   18.6160 C   0  0  0  0  0  0  0  0  0  0  0  0
   12.9030   33.7670   15.0670 O   0  0  0  0  0  0  0  0  0  0  0  0
   10.7360   32.3640   19.9810 N   0  0  0  0  0  0  0  0  0  0  0  0
   10.6010   30.9260   20.2820 C   0  0  0  0  0  0  0  0  0  0  0  0
    9.5650   33.1730   20.3690 C   0  0  0  0  0  0  0  0  0  0  0  0
   10.0840   40.7292    4.6141 H   0  0  0  0  0  0  0  0  0  0  0  0
    9.8800   39.6590    6.8755 H   0  0  0  0  0  0  0  0  0  0  0  0
   10.6642   43.5098    8.6711 H   0  0  0  0  0  0  0  0  0  0  0  0
   10.8698   44.4211    6.3441 H   0  0  0  0  0  0  0  0  0  0  0  0
   10.2122   42.6277   10.3037 H   0  0  0  0  0  0  0  0  0  0  0  0
    9.2807   40.0201   11.7338 H   0  0  0  0  0  0  0  0  0  0  0  0
    7.3524   41.4510   10.8973 H   0  0  0  0  0  0  0  0  0  0  0  0
    7.9121   42.7581   11.8094 H   0  0  0  0  0  0  0  0  0  0  0  0
    7.6337   40.1051   13.2004 H   0  0  0  0  0  0  0  0  0  0  0  0
    6.7600   41.6596   15.0774 H   0  0  0  0  0  0  0  0  0  0  0  0
    7.2350   42.9747   14.1078 H   0  0  0  0  0  0  0  0  0  0  0  0
    9.1895   40.7712   15.1463 H   0  0  0  0  0  0  0  0  0  0  0  0
    8.9970   42.2914   15.8755 H   0  0  0  0  0  0  0  0  0  0  0  0
   10.8598   42.7879   14.4817 H   0  0  0  0  0  0  0  0  0  0  0  0
    9.6087   43.3697   13.4751 H   0  0  0  0  0  0  0  0  0  0  0  0
   11.2451   42.0560   12.2964 H   0  0  0  0  0  0  0  0  0  0  0  0
   10.4845   39.2876   13.1600 H   0  0  0  0  0  0  0  0  0  0  0  0
   14.5623   39.3678   15.0714 H   0  0  0  0  0  0  0  0  0  0  0  0
   15.0690   37.3994   16.4506 H   0  0  0  0  0  0  0  0  0  0  0  0
   10.9241   36.1766   16.2221 H   0  0  0  0  0  0  0  0  0  0  0  0
   10.3980   38.1565   14.8475 H   0  0  0  0  0  0  0  0  0  0  0  0
   11.5364   31.5419   15.5367 H   0  0  0  0  0  0  0  0  0  0  0  0
   10.5878   30.9500   17.6774 H   0  0  0  0  0  0  0  0  0  0  0  0
   12.1436   34.5742   19.4970 H   0  0  0  0  0  0  0  0  0  0  0  0
   12.8008   33.2100   14.3043 H   0  0  0  0  0  0  0  0  0  0  0  0
   11.5980   30.4363   20.1852 H   0  0  0  0  0  0  0  0  0  0  0  0
   10.0409   30.4297   19.4555 H   0  0  0  0  0  0  0  0  0  0  0  0
   10.1448   30.6386   21.2580 H   0  0  0  0  0  0  0  0  0  0  0  0
    8.7966   33.1569   19.5612 H   0  0  0  0  0  0  0  0  0  0  0  0
    9.8235   34.2576   20.3652 H   0  0  0  0  0  0  0  0  0  0  0  0
    9.1088   32.8856   21.3450 H   0  0  0  0  0  0  0  0  0  0  0  0
  1  2  1  0  0  0  0
  1  6  2  0  0  0  0
  2  3  2  0  0  0  0
  3  4  1  0  0  0  0
  4  5  2  0  0  0  0
  4  7  1  0  0  0  0
  5  6  1  0  0  0  0
  7  8  2  0  0  0  0
  7  9  1  0  0  0  0
  9 10  1  0  0  0  0
 10 11  1  0  0  0  0
 10 16  1  0  0  0  0
 11 12  1  0  0  0  0
 12 13  1  0  0  0  0
 13 14  1  0  0  0  0
 14 15  1  0  0  0  0
 15 16  1  0  0  0  0
 16 17  1  0  0  0  0
 17 18  1  0  0  0  0
 18 19  2  0  0  0  0
 18 20  1  0  0  0  0
 20 25  1  0  0  0  0
 20 21  2  0  0  0  0
 21 22  1  0  0  0  0
 22 23  2  0  0  0  0
 23 24  1  0  0  0  0
 23 26  1  0  0  0  0
 24 25  2  0  0  0  0
 26 27  2  0  0  0  0
 26 28  1  0  0  0  0
 28 33  1  0  0  0  0
 28 29  2  0  0  0  0
 29 34  1  0  0  0  0
 29 30  1  0  0  0  0
 30 31  2  0  0  0  0
 31 32  1  0  0  0  0
 32 33  2  0  0  0  0
 32 35  1  0  0  0  0
 35 37  1  0  0  0  0
 35 36  1  0  0  0  0
  2 38  1  0  0  0  0
  3 39  1  0  0  0  0
  5 40  1  0  0  0  0
  6 41  1  0  0  0  0
  9 42  1  0  0  0  0
 10 43  1  0  0  0  0
 11 44  1  0  0  0  0
 11 45  1  0  0  0  0
 12 46  1  0  0  0  0
 13 47  1  0  0  0  0
 13 48  1  0  0  0  0
 14 49  1  0  0  0  0
 14 50  1  0  0  0  0
 15 51  1  0  0  0  0
 15 52  1  0  0  0  0
 16 53  1  0  0  0  0
 17 54  1  0  0  0  0
 21 55  1  0  0  0  0
 22 56  1  0  0  0  0
 24 57  1  0  0  0  0
 25 58  1  0  0  0  0
 30 59  1  0  0  0  0
 31 60  1  0  0  0  0
 33 61  1  0  0  0  0
 34 62  1  0  0  0  0
 36 63  1  0  0  0  0
 36 64  1  0  0  0  0
 36 65  1  0  0  0  0
 37 66  1  0  0  0  0
 37 67  1  0  0  0  0
 37 68  1  0  0  0  0
M  END
> <UNIQUE_SMILES>
CN(C)c1ccc(O)c(c1)C(=O)c2ccc(cc2)C(=O)NC3CCCNCC3NC(=O)c4ccncc4

$$$$
