C29H28N8O
APtclcactv01052012563D 0   0.00000     0.00000     1
 
 66 70  0  0  0  0  0  0  0  0999 V2000
    2.1150   35.7970   -9.2860 C   0  0  0  0  0  0  0  0  0  0  0  0
   -1.0220   27.4540   -8.2480 C   0  0  0  0  0  0  0  0  0  0  0  0
    0.9790   28.0920   -6.9270 C   0  0  0  0  0  0  0  0  0  0  0  0
   -1.2480   28.2390   -6.0230 C   0  0  0  0  0  0  0  0  0  0  0  0
    2.9720   32.4450  -10.6900 C   0  0  0  0  0  0  0  0  0  0  0  0
    3.0040   33.7670  -10.4080 C   0  0  0  0  0  0  0  0  0  0  0  0
    1.9880   31.6870  -10.1390 C   0  0  0  0  0  0  0  0  0  0  0  0
   -4.6500   35.1690   -7.2910 C   0  0  0  0  0  0  0  0  0  0  0  0
   -5.2970   35.5370   -9.5100 C   0  0  0  0  0  0  0  0  0  0  0  0
   -5.6800   35.9640   -6.8690 C   0  0  0  0  0  0  0  0  0  0  0  0
   -6.3370   36.3370   -9.0800 C   0  0  0  0  0  0  0  0  0  0  0  0
  -11.7650   38.8160   -5.0140 C   0  0  0  0  0  0  0  0  0  0  0  0
  -12.0120   37.6510   -5.6720 C   0  0  0  0  0  0  0  0  0  0  0  0
    1.0700   33.5640   -9.0270 C   0  0  0  0  0  0  0  0  0  0  0  0
   -1.5330   30.5910   -8.0430 C   0  0  0  0  0  0  0  0  0  0  0  0
   -9.5100   38.7770   -5.7910 C   0  0  0  0  0  0  0  0  0  0  0  0
   -2.8330   33.1740   -8.4240 C   0  0  0  0  0  0  0  0  0  0  0  0
  -10.3200   40.5050   -4.4220 N   0  0  0  0  0  0  0  0  0  0  0  0
    0.5300   30.4060   -8.3540 N   0  0  0  0  0  0  0  0  0  0  0  0
   -3.4090   34.1660   -9.0420 N   0  0  0  0  0  0  0  0  0  0  0  0
   -1.7850   32.7080   -9.0140 N   0  0  0  0  0  0  0  0  0  0  0  0
   -7.5620   37.3420   -7.3330 N   0  0  0  0  0  0  0  0  0  0  0  0
   -3.1890   32.7220   -7.3730 O   0  0  0  0  0  0  0  0  0  0  0  0
    2.0660   34.3150   -9.5840 C   0  0  0  0  0  0  0  0  0  0  0  0
  -10.5190   39.3810   -5.0700 C   0  0  0  0  0  0  0  0  0  0  0  0
   -4.4350   34.9190   -8.6220 C   0  0  0  0  0  0  0  0  0  0  0  0
   -6.5570   36.5590   -7.7520 C   0  0  0  0  0  0  0  0  0  0  0  0
    1.0400   32.2470   -9.3330 C   0  0  0  0  0  0  0  0  0  0  0  0
   -0.4940   29.8160   -7.8580 C   0  0  0  0  0  0  0  0  0  0  0  0
   -1.0880   31.6680   -8.6140 C   0  0  0  0  0  0  0  0  0  0  0  0
   -0.4440   28.4130   -7.2500 C   0  0  0  0  0  0  0  0  0  0  0  0
    0.1640   31.4620   -8.8120 N   0  0  0  0  0  0  0  0  0  0  0  0
   -9.1670   35.8230   -7.7430 N   0  0  0  0  0  0  0  0  0  0  0  0
  -10.3560   35.3310   -7.6420 C   0  0  0  0  0  0  0  0  0  0  0  0
  -11.2740   35.9340   -6.9890 N   0  0  0  0  0  0  0  0  0  0  0  0
  -11.0050   37.0580   -6.3800 C   0  0  0  0  0  0  0  0  0  0  0  0
   -9.7470   37.6040   -6.4520 C   0  0  0  0  0  0  0  0  0  0  0  0
   -8.7980   36.9380   -7.1820 C   0  0  0  0  0  0  0  0  0  0  0  0
    2.1114   36.3551  -10.2513 H   0  0  0  0  0  0  0  0  0  0  0  0
    3.1270   36.0480   -8.8909 H   0  0  0  0  0  0  0  0  0  0  0  0
    1.3480   36.2451   -8.6122 H   0  0  0  0  0  0  0  0  0  0  0  0
   -0.9125   26.3984   -7.9059 H   0  0  0  0  0  0  0  0  0  0  0  0
   -0.3983   27.4050   -9.1709 H   0  0  0  0  0  0  0  0  0  0  0  0
   -2.0839   27.6936   -8.4890 H   0  0  0  0  0  0  0  0  0  0  0  0
    1.6027   28.0430   -7.8499 H   0  0  0  0  0  0  0  0  0  0  0  0
    1.0885   27.0364   -6.5849 H   0  0  0  0  0  0  0  0  0  0  0  0
    1.4087   28.8049   -6.1851 H   0  0  0  0  0  0  0  0  0  0  0  0
   -1.2894   27.1855   -5.6601 H   0  0  0  0  0  0  0  0  0  0  0  0
   -2.3440   28.3660   -6.1837 H   0  0  0  0  0  0  0  0  0  0  0  0
   -0.8183   28.9519   -5.2811 H   0  0  0  0  0  0  0  0  0  0  0  0
    3.7302   31.9958  -11.3534 H   0  0  0  0  0  0  0  0  0  0  0  0
    3.7941   34.3974  -10.8495 H   0  0  0  0  0  0  0  0  0  0  0  0
    1.9584   30.6045  -10.3484 H   0  0  0  0  0  0  0  0  0  0  0  0
   -3.9776   34.7194   -6.5411 H   0  0  0  0  0  0  0  0  0  0  0  0
   -5.1507   35.3875  -10.5930 H   0  0  0  0  0  0  0  0  0  0  0  0
   -5.8070   36.1300   -5.7860 H   0  0  0  0  0  0  0  0  0  0  0  0
   -7.0087   36.8105   -9.8156 H   0  0  0  0  0  0  0  0  0  0  0  0
  -12.5713   39.3002   -4.4378 H   0  0  0  0  0  0  0  0  0  0  0  0
  -13.0149   37.1936   -5.6320 H   0  0  0  0  0  0  0  0  0  0  0  0
    0.3163   34.0056   -8.3536 H   0  0  0  0  0  0  0  0  0  0  0  0
   -2.5804   30.3779   -7.7706 H   0  0  0  0  0  0  0  0  0  0  0  0
   -8.5076   39.2347   -5.8393 H   0  0  0  0  0  0  0  0  0  0  0  0
  -10.5855   40.3786   -3.4453 H   0  0  0  0  0  0  0  0  0  0  0  0
   -9.3918   40.9259   -4.4637 H   0  0  0  0  0  0  0  0  0  0  0  0
   -1.4859   33.1971   -9.8576 H   0  0  0  0  0  0  0  0  0  0  0  0
  -10.5940   34.3693   -8.1268 H   0  0  0  0  0  0  0  0  0  0  0  0
  1 24  1  0  0  0  0
  2 31  1  0  0  0  0
  3 31  1  0  0  0  0
  4 31  1  0  0  0  0
  5  6  1  0  0  0  0
  5  7  2  0  0  0  0
  6 24  2  0  0  0  0
  7 28  1  0  0  0  0
  8 10  2  0  0  0  0
  8 26  1  0  0  0  0
  9 11  2  0  0  0  0
  9 26  1  0  0  0  0
 10 27  1  0  0  0  0
 11 27  1  0  0  0  0
 12 13  2  0  0  0  0
 12 25  1  0  0  0  0
 13 36  1  0  0  0  0
 14 28  2  0  0  0  0
 14 24  1  0  0  0  0
 15 30  2  0  0  0  0
 15 29  1  0  0  0  0
 16 37  1  0  0  0  0
 16 25  2  0  0  0  0
 17 23  2  0  0  0  0
 17 21  1  0  0  0  0
 17 20  1  0  0  0  0
 18 25  1  0  0  0  0
 19 32  1  0  0  0  0
 19 29  2  0  0  0  0
 20 26  2  0  0  0  0
 21 30  1  0  0  0  0
 22 38  1  0  0  0  0
 22 27  2  0  0  0  0
 28 32  1  0  0  0  0
 29 31  1  0  0  0  0
 30 32  1  0  0  0  0
 33 34  1  0  0  0  0
 33 38  2  0  0  0  0
 34 35  2  0  0  0  0
 35 36  1  0  0  0  0
 36 37  2  0  0  0  0
 37 38  1  0  0  0  0
  1 39  1  0  0  0  0
  1 40  1  0  0  0  0
  1 41  1  0  0  0  0
  2 42  1  0  0  0  0
  2 43  1  0  0  0  0
  2 44  1  0  0  0  0
  3 45  1  0  0  0  0
  3 46  1  0  0  0  0
  3 47  1  0  0  0  0
  4 48  1  0  0  0  0
  4 49  1  0  0  0  0
  4 50  1  0  0  0  0
  5 51  1  0  0  0  0
  6 52  1  0  0  0  0
  7 53  1  0  0  0  0
  8 54  1  0  0  0  0
  9 55  1  0  0  0  0
 10 56  1  0  0  0  0
 11 57  1  0  0  0  0
 12 58  1  0  0  0  0
 13 59  1  0  0  0  0
 14 60  1  0  0  0  0
 15 61  1  0  0  0  0
 16 62  1  0  0  0  0
 18 63  1  0  0  0  0
 18 64  1  0  0  0  0
 21 65  1  0  0  0  0
 34 66  1  0  0  0  0
M  END
> <UNIQUE_SMILES>
Cc1cccc(c1)n2nc(cc2NC(=O)N=C3C=CC(C=C3)=Nc4ncnc5ccc(N)cc45)C(C)(C)C

$$$$
