C29H33ClN6O4
APtclcactv01052013003D 0   0.00000     0.00000     1
 
 73 77  0  0  0  0  0  0  0  0999 V2000
    7.4610   11.4160   43.4250 Cl  0  0  0  0  0  0  0  0  0  0  0  0
    5.4560   16.1160   46.4940 C   0  0  0  0  0  0  0  0  0  0  0  0
    4.5280   16.9110   45.8490 C   0  0  0  0  0  0  0  0  0  0  0  0
    4.6750   10.7990   46.8950 C   0  0  0  0  0  0  0  0  0  0  0  0
    5.7160   14.8610   45.9700 C   0  0  0  0  0  0  0  0  0  0  0  0
    4.5450   11.9180   46.1060 C   0  0  0  0  0  0  0  0  0  0  0  0
    8.1300    5.2950   49.6710 C   0  0  0  0  0  0  0  0  0  0  0  0
    4.1270   15.2310   44.1940 C   0  0  0  0  0  0  0  0  0  0  0  0
    6.5170   10.0600   45.5680 C   0  0  0  0  0  0  0  0  0  0  0  0
    6.7800    5.0150   49.6240 C   0  0  0  0  0  0  0  0  0  0  0  0
    9.3050    8.3340   48.1570 C   0  0  0  0  0  0  0  0  0  0  0  0
    8.3420    6.5280   49.0090 C   0  0  0  0  0  0  0  0  0  0  0  0
    7.1150    6.9990   48.5740 C   0  0  0  0  0  0  0  0  0  0  0  0
    3.8620   16.4740   44.7190 C   0  0  0  0  0  0  0  0  0  0  0  0
    5.6630    9.8700   46.6410 C   0  0  0  0  0  0  0  0  0  0  0  0
    5.0560   14.4370   44.8300 C   0  0  0  0  0  0  0  0  0  0  0  0
    5.4080   12.1030   45.0460 C   0  0  0  0  0  0  0  0  0  0  0  0
    6.3930   11.1810   44.7670 C   0  0  0  0  0  0  0  0  0  0  0  0
    7.0290    8.1880   47.8800 C   0  0  0  0  0  0  0  0  0  0  0  0
    2.1950   17.1610   42.9610 C   0  0  0  0  0  0  0  0  0  0  0  0
   -0.7060   19.6670   39.2140 C   0  0  0  0  0  0  0  0  0  0  0  0
   -1.4180   19.3690   40.5060 C   0  0  0  0  0  0  0  0  0  0  0  0
    0.4580   18.6950   39.0020 C   0  0  0  0  0  0  0  0  0  0  0  0
   -0.4180   19.4270   41.6450 C   0  0  0  0  0  0  0  0  0  0  0  0
    1.4260   18.7470   40.1680 C   0  0  0  0  0  0  0  0  0  0  0  0
    0.6770   18.4010   41.4380 C   0  0  0  0  0  0  0  0  0  0  0  0
    4.7550    6.0500   48.7010 C   0  0  0  0  0  0  0  0  0  0  0  0
    3.9410    6.6060   49.8330 C   0  0  0  0  0  0  0  0  0  0  0  0
    2.3010    9.6130   49.5660 C   0  0  0  0  0  0  0  0  0  0  0  0
    3.0480    8.6650   50.4530 C   0  0  0  0  0  0  0  0  0  0  0  0
    9.4960    7.1960   48.8190 N   0  0  0  0  0  0  0  0  0  0  0  0
    8.1730    8.8550   47.6800 N   0  0  0  0  0  0  0  0  0  0  0  0
    6.1830    6.0500   48.9590 N   0  0  0  0  0  0  0  0  0  0  0  0
    5.7890    8.7040   47.4220 N   0  0  0  0  0  0  0  0  0  0  0  0
    2.9300   17.3440   44.1180 N   0  0  0  0  0  0  0  0  0  0  0  0
    1.5540   18.3230   42.5940 N   0  0  0  0  0  0  0  0  0  0  0  0
    2.0300   16.1120   42.3630 O   0  0  0  0  0  0  0  0  0  0  0  0
    1.5420    8.8190   48.6810 O   0  0  0  0  0  0  0  0  0  0  0  0
    5.3030   13.2140   44.2270 O   0  0  0  0  0  0  0  0  0  0  0  0
    4.0050    8.0080   49.6250 O   0  0  0  0  0  0  0  0  0  0  0  0
    5.9739   16.4726   47.4002 H   0  0  0  0  0  0  0  0  0  0  0  0
    4.3139   17.9178   46.2453 H   0  0  0  0  0  0  0  0  0  0  0  0
    3.9811   10.6453   47.7385 H   0  0  0  0  0  0  0  0  0  0  0  0
    6.4490   14.1989   46.4608 H   0  0  0  0  0  0  0  0  0  0  0  0
    3.7570   12.6592   46.3211 H   0  0  0  0  0  0  0  0  0  0  0  0
    8.8931    4.6560   50.1464 H   0  0  0  0  0  0  0  0  0  0  0  0
    3.6079   14.8800   43.2863 H   0  0  0  0  0  0  0  0  0  0  0  0
    7.3002    9.3145   45.3502 H   0  0  0  0  0  0  0  0  0  0  0  0
    6.2725    4.1287   50.0405 H   0  0  0  0  0  0  0  0  0  0  0  0
   10.2152    8.9308   47.9781 H   0  0  0  0  0  0  0  0  0  0  0  0
   -0.3723   20.7296   39.1613 H   0  0  0  0  0  0  0  0  0  0  0  0
   -1.4066   19.6686   38.3466 H   0  0  0  0  0  0  0  0  0  0  0  0
   -1.9692   18.4003   40.4736 H   0  0  0  0  0  0  0  0  0  0  0  0
   -2.2923   20.0403   40.6738 H   0  0  0  0  0  0  0  0  0  0  0  0
    0.9738   18.8760   38.0302 H   0  0  0  0  0  0  0  0  0  0  0  0
    0.0982   17.6570   38.8115 H   0  0  0  0  0  0  0  0  0  0  0  0
   -0.9122   19.3126   42.6379 H   0  0  0  0  0  0  0  0  0  0  0  0
   -0.0049   20.4534   41.7833 H   0  0  0  0  0  0  0  0  0  0  0  0
    1.9560   19.7254   40.2388 H   0  0  0  0  0  0  0  0  0  0  0  0
    2.3192   18.0987   40.0098 H   0  0  0  0  0  0  0  0  0  0  0  0
    0.2299   17.3857   41.3265 H   0  0  0  0  0  0  0  0  0  0  0  0
    4.4036    5.0278   48.4275 H   0  0  0  0  0  0  0  0  0  0  0  0
    4.5260    6.5856   47.7503 H   0  0  0  0  0  0  0  0  0  0  0  0
    4.2680    6.2729   50.8456 H   0  0  0  0  0  0  0  0  0  0  0  0
    2.9068    6.1954   49.9048 H   0  0  0  0  0  0  0  0  0  0  0  0
    1.6885   10.3551   50.1293 H   0  0  0  0  0  0  0  0  0  0  0  0
    2.9620   10.3451   49.0461 H   0  0  0  0  0  0  0  0  0  0  0  0
    2.3838    7.9603   51.0057 H   0  0  0  0  0  0  0  0  0  0  0  0
    3.4997    9.1576   51.3455 H   0  0  0  0  0  0  0  0  0  0  0  0
    5.3198    7.9524   46.9166 H   0  0  0  0  0  0  0  0  0  0  0  0
    2.7635   18.2339   44.5879 H   0  0  0  0  0  0  0  0  0  0  0  0
    1.7308   19.1352   43.1852 H   0  0  0  0  0  0  0  0  0  0  0  0
    1.0682    9.4203   48.1184 H   0  0  0  0  0  0  0  0  0  0  0  0
  1 18  1  0  0  0  0
  2  3  1  0  0  0  0
  2  5  2  0  0  0  0
  3 14  2  0  0  0  0
  4  6  1  0  0  0  0
  4 15  2  0  0  0  0
  5 16  1  0  0  0  0
  6 17  2  0  0  0  0
  7 10  2  0  0  0  0
  7 12  1  0  0  0  0
  8 14  1  0  0  0  0
  8 16  2  0  0  0  0
  9 18  2  0  0  0  0
  9 15  1  0  0  0  0
 10 33  1  0  0  0  0
 11 31  1  0  0  0  0
 11 32  2  0  0  0  0
 12 31  2  0  0  0  0
 12 13  1  0  0  0  0
 13 19  2  0  0  0  0
 13 33  1  0  0  0  0
 14 35  1  0  0  0  0
 15 34  1  0  0  0  0
 16 39  1  0  0  0  0
 17 18  1  0  0  0  0
 17 39  1  0  0  0  0
 19 32  1  0  0  0  0
 19 34  1  0  0  0  0
 20 37  2  0  0  0  0
 20 36  1  0  0  0  0
 20 35  1  0  0  0  0
 21 22  1  0  0  0  0
 21 23  1  0  0  0  0
 22 24  1  0  0  0  0
 23 25  1  0  0  0  0
 24 26  1  0  0  0  0
 25 26  1  0  0  0  0
 26 36  1  0  0  0  0
 27 33  1  0  0  0  0
 27 28  1  0  0  0  0
 28 40  1  0  0  0  0
 29 38  1  0  0  0  0
 29 30  1  0  0  0  0
 30 40  1  0  0  0  0
  2 41  1  0  0  0  0
  3 42  1  0  0  0  0
  4 43  1  0  0  0  0
  5 44  1  0  0  0  0
  6 45  1  0  0  0  0
  7 46  1  0  0  0  0
  8 47  1  0  0  0  0
  9 48  1  0  0  0  0
 10 49  1  0  0  0  0
 11 50  1  0  0  0  0
 21 51  1  0  0  0  0
 21 52  1  0  0  0  0
 22 53  1  0  0  0  0
 22 54  1  0  0  0  0
 23 55  1  0  0  0  0
 23 56  1  0  0  0  0
 24 57  1  0  0  0  0
 24 58  1  0  0  0  0
 25 59  1  0  0  0  0
 25 60  1  0  0  0  0
 26 61  1  0  0  0  0
 27 62  1  0  0  0  0
 27 63  1  0  0  0  0
 28 64  1  0  0  0  0
 28 65  1  0  0  0  0
 29 66  1  0  0  0  0
 29 67  1  0  0  0  0
 30 68  1  0  0  0  0
 30 69  1  0  0  0  0
 34 70  1  0  0  0  0
 35 71  1  0  0  0  0
 36 72  1  0  0  0  0
 38 73  1  0  0  0  0
M  END
> <UNIQUE_SMILES>
OCCOCCn1ccc2ncnc(Nc3ccc(Oc4cccc(NC(=O)NC5CCCCC5)c4)c(Cl)c3)c12

$$$$
