C21H19FN6O2
APtclcactv01052013013D 0   0.00000     0.00000     1
 
 49 52  0  0  1  0  0  0  0  0999 V2000
   29.9930   44.2340    9.2420 C   0  0  0  0  0  0  0  0  0  0  0  0
   28.9160   43.9330   10.0990 C   0  0  0  0  0  0  0  0  0  0  0  0
   27.8390   44.7890   10.2230 N   0  0  0  0  0  0  0  0  0  0  0  0
   27.8220   45.9680    9.4930 C   0  0  0  0  0  0  0  0  0  0  0  0
   28.8480   46.3680    8.6050 C   0  0  0  0  0  0  0  0  0  0  0  0
   29.9120   45.4530    8.5200 C   0  0  0  0  0  0  0  0  0  0  0  0
   31.0350   43.3250    9.1860 O   0  0  0  0  0  0  0  0  0  0  0  0
   32.2090   43.5390    8.3520 C   0  0  2  0  0  0  0  0  0  0  0  0
   32.9180   42.1720    8.2670 C   0  0  0  0  0  0  0  0  0  0  0  0
   33.1400   44.6400    8.9220 C   0  0  0  0  0  0  0  0  0  0  0  0
   33.5380   45.8350    8.1850 C   0  0  0  0  0  0  0  0  0  0  0  0
   34.4000   46.8120    8.7880 C   0  0  0  0  0  0  0  0  0  0  0  0
   34.8690   46.6270   10.1040 C   0  0  0  0  0  0  0  0  0  0  0  0
   34.4920   45.4820   10.8230 C   0  0  0  0  0  0  0  0  0  0  0  0
   33.6470   44.5010   10.2610 C   0  0  0  0  0  0  0  0  0  0  0  0
   28.9340   42.7370   10.8520 N   0  0  0  0  0  0  0  0  0  0  0  0
   28.8920   47.6360    7.8070 C   0  0  0  0  0  0  0  0  0  0  0  0
   27.8080   48.4060    7.3250 C   0  0  0  0  0  0  0  0  0  0  0  0
   28.3760   49.4780    6.6600 N   0  0  0  0  0  0  0  0  0  0  0  0
   29.7090   49.4810    6.6570 N   0  0  0  0  0  0  0  0  0  0  0  0
   30.0600   48.3890    7.3350 C   0  0  0  0  0  0  0  0  0  0  0  0
   26.3890   48.2230    7.4390 C   0  0  0  0  0  0  0  0  0  0  0  0
   25.2410   48.0740    7.4870 N   0  0  0  0  0  0  0  0  0  0  0  0
   27.6890   50.5690    5.9860 C   0  0  0  0  0  0  0  0  0  0  0  0
   32.1780   47.1950    6.4830 N   0  0  0  0  0  0  0  0  0  0  0  0
   33.0940   46.1240    6.7820 C   0  0  0  0  0  0  0  0  0  0  0  0
   31.5520   48.1510    7.4820 C   0  0  0  0  0  0  0  0  0  0  0  0
   31.8320   47.3710    5.0630 C   0  0  0  0  0  0  0  0  0  0  0  0
   33.5850   45.3670    5.9340 O   0  0  0  0  0  0  0  0  0  0  0  0
   34.9420   45.3170   12.0630 F   0  0  0  0  0  0  0  0  0  0  0  0
   26.9447   46.6232    9.6259 H   0  0  0  0  0  0  0  0  0  0  0  0
   30.7412   45.7094    7.8393 H   0  0  0  0  0  0  0  0  0  0  0  0
   31.9191   43.9082    7.3406 H   0  0  0  0  0  0  0  0  0  0  0  0
   32.2583   41.3487    7.9062 H   0  0  0  0  0  0  0  0  0  0  0  0
   33.1527   41.7283    9.2626 H   0  0  0  0  0  0  0  0  0  0  0  0
   33.8171   42.3359    7.6283 H   0  0  0  0  0  0  0  0  0  0  0  0
   34.7055   47.7153    8.2337 H   0  0  0  0  0  0  0  0  0  0  0  0
   35.5299   47.3769   10.5704 H   0  0  0  0  0  0  0  0  0  0  0  0
   33.3815   43.6214   10.8712 H   0  0  0  0  0  0  0  0  0  0  0  0
   29.7977   42.7077   11.3938 H   0  0  0  0  0  0  0  0  0  0  0  0
   28.1543   42.5191   11.4724 H   0  0  0  0  0  0  0  0  0  0  0  0
   27.0009   51.0105    6.7441 H   0  0  0  0  0  0  0  0  0  0  0  0
   26.9976   50.0885    5.2550 H   0  0  0  0  0  0  0  0  0  0  0  0
   28.1468   51.4330    5.4501 H   0  0  0  0  0  0  0  0  0  0  0  0
   31.7802   47.8148    8.5203 H   0  0  0  0  0  0  0  0  0  0  0  0
   32.0935   49.1255    7.4624 H   0  0  0  0  0  0  0  0  0  0  0  0
   31.4424   46.4127    4.6470 H   0  0  0  0  0  0  0  0  0  0  0  0
   32.7617   47.4886    4.4588 H   0  0  0  0  0  0  0  0  0  0  0  0
   31.1231   48.1999    4.8316 H   0  0  0  0  0  0  0  0  0  0  0  0
  1  7  1  0  0  0  0
  1  2  1  0  0  0  0
  1  6  2  0  0  0  0
  2  3  2  0  0  0  0
  2 16  1  0  0  0  0
  3  4  1  0  0  0  0
  4  5  2  0  0  0  0
  5  6  1  0  0  0  0
  5 17  1  0  0  0  0
  7  8  1  0  0  0  0
  8  9  1  0  0  0  0
  8 10  1  0  0  0  0
 10 15  1  0  0  0  0
 10 11  2  0  0  0  0
 11 12  1  0  0  0  0
 11 26  1  0  0  0  0
 12 13  2  0  0  0  0
 13 14  1  0  0  0  0
 14 30  1  0  0  0  0
 14 15  2  0  0  0  0
 17 18  2  0  0  0  0
 17 21  1  0  0  0  0
 18 19  1  0  0  0  0
 18 22  1  0  0  0  0
 19 20  1  0  0  0  0
 19 24  1  0  0  0  0
 20 21  2  0  0  0  0
 21 27  1  0  0  0  0
 22 23  3  0  0  0  0
 25 26  1  0  0  0  0
 25 28  1  0  0  0  0
 25 27  1  0  0  0  0
 26 29  2  0  0  0  0
  4 31  1  0  0  0  0
  6 32  1  0  0  0  0
  8 33  1  0  0  0  0
  9 34  1  0  0  0  0
  9 35  1  0  0  0  0
  9 36  1  0  0  0  0
 12 37  1  0  0  0  0
 13 38  1  0  0  0  0
 15 39  1  0  0  0  0
 16 40  1  0  0  0  0
 16 41  1  0  0  0  0
 24 42  1  0  0  0  0
 24 43  1  0  0  0  0
 24 44  1  0  0  0  0
 27 45  1  0  0  0  0
 27 46  1  0  0  0  0
 28 47  1  0  0  0  0
 28 48  1  0  0  0  0
 28 49  1  0  0  0  0
M  END
> <UNIQUE_SMILES>
CC1Oc2cc(cnc2N)c3c(CN(C)C(=O)c4ccc(F)cc14)nn(C)c3C#N

$$$$
