C18H23N6O3S
APtclcactv01172009263D 0   0.00000     0.00000     1
 
 51 54  0  0  0  0  0  0  0  0999 V2000
  -13.0910   -4.5020    4.0580 N   0  0  0  0  0  0  0  0  0  0  0  0
  -13.9110   -5.4180    3.5210 C   0  0  0  0  0  0  0  0  0  0  0  0
  -14.0380   -6.6240    4.0710 N   0  0  0  0  0  0  0  0  0  0  0  0
  -14.6110   -5.1480    2.4090 N   0  0  0  0  0  0  0  0  0  0  0  0
  -14.5090   -3.9530    1.8110 C   0  0  0  0  0  0  0  0  0  0  0  0
  -13.6690   -2.9900    2.3500 C   0  0  0  0  0  0  0  0  0  0  0  0
  -12.9510   -3.2920    3.4980 C   0  0  0  0  0  0  0  0  0  0  0  0
  -12.1050   -2.3700    4.0340 O   0  0  0  0  0  0  0  0  0  0  0  0
  -13.7440   -1.9180    1.5680 N   0  0  0  0  0  0  0  0  0  0  0  0
  -14.6010   -2.1880    0.5830 C   0  0  0  0  0  0  0  0  0  0  0  0
  -15.0650   -3.4270    0.7250 N   0  0  0  0  0  0  0  0  0  0  0  0
  -12.0540   -2.5090    5.4590 C   0  0  0  0  0  0  0  0  0  0  0  0
  -11.2040   -1.3760    6.0300 C   0  0  0  0  0  0  0  0  0  0  0  0
   -9.7840   -1.4300    5.4640 C   0  0  0  0  0  0  0  0  0  0  0  0
   -8.9290   -0.2910    6.0250 C   0  0  0  0  0  0  0  0  0  0  0  0
   -8.8800   -0.3710    7.5530 C   0  0  0  0  0  0  0  0  0  0  0  0
  -10.2950   -0.3200    8.1310 C   0  0  0  0  0  0  0  0  0  0  0  0
  -11.1480   -1.4560    7.5580 C   0  0  0  0  0  0  0  0  0  0  0  0
  -13.3640   -6.9680    5.1660 C   0  0  0  0  0  0  0  0  0  0  0  0
  -12.4960   -6.0790    5.7890 C   0  0  0  0  0  0  0  0  0  0  0  0
  -11.8230   -6.4560    6.9470 C   0  0  0  0  0  0  0  0  0  0  0  0
  -12.0240   -7.7180    7.4920 C   0  0  0  0  0  0  0  0  0  0  0  0
  -12.8910   -8.6080    6.8700 C   0  0  0  0  0  0  0  0  0  0  0  0
  -13.5570   -8.2350    5.7080 C   0  0  0  0  0  0  0  0  0  0  0  0
  -11.2240   -8.1840    8.9750 S   0  0  0  0  0  0  0  0  0  0  0  0
  -10.4120   -9.4220    8.7380 O   0  0  0  0  0  0  0  0  0  0  0  0
  -12.2630   -8.4940   10.0130 O   0  0  0  0  0  0  0  0  0  0  0  0
  -10.2630   -6.9730    9.4940 N   0  3  0  0  0  0  0  0  0  0  0  0
   -9.4110   -7.4890    9.5940 H   0  0  0  0  0  0  0  0  0  0  0  0
  -10.3200   -6.6750   10.4480 H   0  0  0  0  0  0  0  0  0  0  0  0
   -9.9490   -6.3480    8.7760 H   0  0  0  0  0  0  0  0  0  0  0  0
  -14.6580   -7.2860    3.6520 H   0  0  0  0  0  0  0  0  0  0  0  0
  -13.2510   -1.0570    1.6990 H   0  0  0  0  0  0  0  0  0  0  0  0
  -14.8830   -1.4928   -0.2256 H   0  0  0  0  0  0  0  0  0  0  0  0
  -11.6938   -3.5151    5.7772 H   0  0  0  0  0  0  0  0  0  0  0  0
  -13.0682   -2.5560    5.9200 H   0  0  0  0  0  0  0  0  0  0  0  0
  -11.6789   -0.4114    5.7346 H   0  0  0  0  0  0  0  0  0  0  0  0
   -9.7848   -1.4338    4.3490 H   0  0  0  0  0  0  0  0  0  0  0  0
   -9.3096   -2.4243    5.6358 H   0  0  0  0  0  0  0  0  0  0  0  0
   -9.2794    0.7065    5.6709 H   0  0  0  0  0  0  0  0  0  0  0  0
   -7.9087   -0.2754    5.5755 H   0  0  0  0  0  0  0  0  0  0  0  0
   -8.2230    0.4166    7.9903 H   0  0  0  0  0  0  0  0  0  0  0  0
   -8.3185   -1.2676    7.9052 H   0  0  0  0  0  0  0  0  0  0  0  0
  -10.7714    0.6760    7.9750 H   0  0  0  0  0  0  0  0  0  0  0  0
  -10.2884   -0.3277    9.2460 H   0  0  0  0  0  0  0  0  0  0  0  0
  -10.7936   -2.4542    7.9062 H   0  0  0  0  0  0  0  0  0  0  0  0
  -12.1680   -1.4735    8.0080 H   0  0  0  0  0  0  0  0  0  0  0  0
  -12.3411   -5.0731    5.3639 H   0  0  0  0  0  0  0  0  0  0  0  0
  -11.1278   -5.7520    7.4346 H   0  0  0  0  0  0  0  0  0  0  0  0
  -13.0507   -9.6115    7.2991 H   0  0  0  0  0  0  0  0  0  0  0  0
  -14.2405   -8.9464    5.2147 H   0  0  0  0  0  0  0  0  0  0  0  0
  1  7  1  0  0  0  0
  1  2  2  0  0  0  0
  2  3  1  0  0  0  0
  2  4  1  0  0  0  0
  3 32  1  0  0  0  0
  3 19  1  0  0  0  0
  4  5  2  0  0  0  0
  5 11  1  0  0  0  0
  5  6  1  0  0  0  0
  6  9  1  0  0  0  0
  6  7  2  0  0  0  0
  7  8  1  0  0  0  0
  8 12  1  0  0  0  0
  9 33  1  0  0  0  0
  9 10  1  0  0  0  0
 10 11  2  0  0  0  0
 12 13  1  0  0  0  0
 13 14  1  0  0  0  0
 13 18  1  0  0  0  0
 14 15  1  0  0  0  0
 15 16  1  0  0  0  0
 16 17  1  0  0  0  0
 17 18  1  0  0  0  0
 19 20  1  0  0  0  0
 19 24  2  0  0  0  0
 20 21  2  0  0  0  0
 21 22  1  0  0  0  0
 22 23  2  0  0  0  0
 22 25  1  0  0  0  0
 23 24  1  0  0  0  0
 25 26  2  0  0  0  0
 25 27  2  0  0  0  0
 25 28  1  0  0  0  0
 28 29  1  0  0  0  0
 28 30  1  0  0  0  0
 28 31  1  0  0  0  0
 10 34  1  0  0  0  0
 12 35  1  0  0  0  0
 12 36  1  0  0  0  0
 13 37  1  0  0  0  0
 14 38  1  0  0  0  0
 14 39  1  0  0  0  0
 15 40  1  0  0  0  0
 15 41  1  0  0  0  0
 16 42  1  0  0  0  0
 16 43  1  0  0  0  0
 17 44  1  0  0  0  0
 17 45  1  0  0  0  0
 18 46  1  0  0  0  0
 18 47  1  0  0  0  0
 20 48  1  0  0  0  0
 21 49  1  0  0  0  0
 23 50  1  0  0  0  0
 24 51  1  0  0  0  0
M  CHG  1  28   1
M  END
> <UNIQUE_SMILES>
[NH3+][S](=O)(=O)c1ccc(Nc2nc(OCC3CCCCC3)c4[nH]cnc4n2)cc1

> <KDEEP_PKD>
6.586911678314209

> <KDEEP_DG>
-8.89

$$$$
