@<TRIPOS>MOLECULE
2itt_Lig.pdb
 33 37 0 0 0
SMALL
GASTEIGER

@<TRIPOS>ATOM
      1  CAA      -50.0450   -4.4560   -9.9620 C.3     1  AEE1        0.0188
      2  CAB      -51.5830   -2.2000  -25.9180 C.3     1  AEE1        0.0603
      3  CAC      -52.3620    2.2610  -28.2710 C.ar    1  AEE1       -0.0000
      4  CAD      -51.9230    2.4620  -26.9480 C.ar    1  AEE1       -0.0002
      5  CAE      -52.8350    0.9930  -28.6750 C.ar    1  AEE1       -0.0002
      6  CAG      -51.9650    1.3760  -26.0540 C.ar    1  AEE1       -0.0003
      7  CAH      -52.8820   -0.0840  -27.7730 C.ar    1  AEE1       -0.0003
      8  CAI      -51.5020    0.8200  -16.1410 C.ar    1  AEE1       -0.0028
      9  CAJ      -49.9620   -0.7930  -17.1020 C.ar    1  AEE1       -0.0028
     10  CAK      -52.0860    0.9790  -17.4070 C.ar    1  AEE1        0.0034
     11  CAL      -50.5530   -0.6360  -18.3700 C.ar    1  AEE1        0.0034
     12  CAM      -51.9340   -0.0420  -21.0060 C.2     1  AEE1        0.0449
     13  CAN      -50.5420   -3.7350  -11.2330 C.3     1  AEE1        0.0722
     14  CAO      -49.5810   -1.4720  -11.4860 C.3     1  AEE1        0.0897
     15  CAP      -49.3030   -3.1600  -13.2780 C.3     1  AEE1        0.0897
     16  CAQ      -50.7210   -0.7810  -12.2970 C.3     1  AEE1        0.0899
     17  CAR      -50.5030   -2.5640  -14.0510 C.3     1  AEE1        0.0899
     18  CAS      -49.7860   -0.2560  -14.5780 C.3     1  AEE1        0.0992
     19  CAX      -50.4280   -0.0680  -15.9830 C.ar    1  AEE1       -0.0061
     20  CAY      -51.6170    0.2770  -18.5500 C.ar    1  AEE1        0.0427
     21  CAZ      -52.4430    0.1080  -26.4510 C.ar    1  AEE1        0.0239
     22  NAV      -52.1840   -0.5970  -24.0670 N.pl3   1  AEE1       -0.0341
     23  NAW      -53.4050    1.1720  -19.9560 N.2     1  AEE1       -0.0378
     24  CBA      -52.2660    0.4580  -19.7990 C.2     1  AEE1        0.1900
     25  CBE      -52.5000   -1.0620  -25.4430 C.3     1  AEE1        0.2270
     26  NBF      -49.4390   -2.9180  -11.8180 N.3     1  AEE1       -0.2703
     27  NBG      -50.7030   -1.1070  -13.7630 N.3     1  AEE1       -0.2665
     28  N1       -54.1620    0.7450  -23.8950 N.2     1  AEE1        0.0134
     29  C2       -55.0140    1.4680  -23.1650 C.2     1  AEE1        0.4718
     30  N3       -54.8340    1.6600  -21.8510 N.2     1  AEE1        0.0158
     31  C4       -53.7830    1.1400  -21.2240 C.2     1  AEE1        0.3714
     32  C5       -52.8520    0.3590  -21.9170 C.3     1  AEE1        0.2463
     33  C6       -53.0560    0.1510  -23.3160 C.2     1  AEE1        0.3577
@<TRIPOS>BOND
     1     1    13    1
     2     2    25    1
     3     3     5   ar
     4     3     4   ar
     5     4     6   ar
     6     5     7   ar
     7     6    21   ar
     8     7    21   ar
     9     8    10   ar
    10     8    19   ar
    11     9    11   ar
    12     9    19   ar
    13    10    20   ar
    14    11    20   ar
    15    12    32    1
    16    12    24    2
    17    13    26    1
    18    14    26    1
    19    14    16    1
    20    15    17    1
    21    15    26    1
    22    16    27    1
    23    17    27    1
    24    18    19    1
    25    18    27    1
    26    20    24    1
    27    21    25    1
    28    22    25    1
    29    22    33    1
    30    23    31    2
    31    23    24    1
    32    28    33    2
    33    28    29    1
    34    29    30    2
    35    30    31    1
    36    31    32    1
    37    32    33    1
