@<TRIPOS>MOLECULE
2iw8_Lig.pdb
 28 31 0 0 0
SMALL
GASTEIGER

@<TRIPOS>ATOM
      1  N1         7.2930   44.7030   50.7500 N.2     1  4SP1       -0.2876
      2  C2         8.2220   44.0290   50.0230 C.1     1  4SP1        0.2290
      3  N2         7.8180   43.0320   49.1710 N.pl3   1  4SP1       -0.1253
      4  N3         9.5340   44.3580   50.1440 N.2     1  4SP1       -0.3050
      5  C4         9.9130   45.3500   50.9890 C.2     1  4SP1        0.2523
      6  C5         9.0200   46.0680   51.7620 C.2     1  4SP1        0.1985
      7  C6         7.6160   45.6970   51.6130 C.2     1  4SP1        0.3114
      8  O6         6.6500   46.3330   52.3110 O.2     1  4SP1       -0.4501
      9  N7         9.7070   46.9640   52.4940 N.2     1  4SP1       -0.2138
     10  C8        11.0250   46.8000   52.1870 C.2     1  4SP1        0.2014
     11  N9        11.1660   45.7940   51.2670 N.2     1  4SP1       -0.1915
     12  C10        5.2950   46.0300   52.0110 C.3     1  4SP1        0.2081
     13  C11        4.4120   46.4980   53.1380 C.3     1  4SP1        0.0438
     14  C12        2.9660   46.2020   52.7200 C.3     1  4SP1        0.0037
     15  C13        1.9720   46.4300   53.8610 C.3     1  4SP1        0.0001
     16  C14        2.4070   45.7380   55.1520 C.3     1  4SP1        0.0000
     17  C15        3.8420   46.1550   55.5260 C.3     1  4SP1        0.0001
     18  C16        4.8150   45.7570   54.4270 C.3     1  4SP1        0.0037
     19  C17        6.6350   42.3310   49.1500 C.ar    1  4SP1        0.0836
     20  C18        5.7220   42.3300   50.2050 C.ar    1  4SP1        0.0188
     21  C19        4.5350   41.5910   50.1310 C.ar    1  4SP1        0.0214
     22  C20        4.2290   40.8110   49.0050 C.ar    1  4SP1        0.1251
     23  C21        5.1580   40.8040   47.9430 C.ar    1  4SP1        0.0214
     24  C22        6.3390   41.5510   48.0210 C.ar    1  4SP1        0.0188
     25  S23        2.8610   39.9350   48.9110 S.O2    1  4SP1        0.0935
     26  O24        3.0650   38.5930   49.5070 O.2     1  4SP1       -0.1503
     27  O25        2.5520   39.7690   47.4760 O.2     1  4SP1       -0.1503
     28  N26        1.6910   40.5510   49.6590 N.3     1  4SP1        0.0392
@<TRIPOS>BOND
     1     1     7    2
     2     1     2    2
     3     2     3    1
     4     2     4    2
     5     3    19    1
     6     4     5    2
     7     5     6    1
     8     5    11    1
     9     6     9    2
    10     6     7    1
    11     7     8    1
    12     8    12    1
    13     9    10    1
    14    10    11    2
    15    12    13    1
    16    13    14    1
    17    13    18    1
    18    14    15    1
    19    15    16    1
    20    16    17    1
    21    17    18    1
    22    19    20   ar
    23    19    24   ar
    24    20    21   ar
    25    21    22   ar
    26    22    23   ar
    27    22    25    1
    28    23    24   ar
    29    25    26    2
    30    25    27    2
    31    25    28    1
