@<TRIPOS>MOLECULE
2iw9_Lig.pdb
 28 31 0 0 0
SMALL
GASTEIGER

@<TRIPOS>ATOM
      1  N1         6.8680   44.3970   50.5810 N.2     1  4SP1       -0.2876
      2  C2         7.7900   43.7290   49.8420 C.1     1  4SP1        0.2290
      3  N2         7.3900   42.7670   48.9840 N.pl3   1  4SP1       -0.1253
      4  N3         9.1190   44.0070   49.9570 N.2     1  4SP1       -0.3050
      5  C4         9.5310   44.9790   50.8070 C.2     1  4SP1        0.2523
      6  C5         8.6560   45.7010   51.5950 C.2     1  4SP1        0.1985
      7  C6         7.2280   45.3720   51.4530 C.2     1  4SP1        0.3114
      8  O6         6.2870   46.0290   52.1840 O.2     1  4SP1       -0.4501
      9  N7         9.3640   46.5760   52.3340 N.2     1  4SP1       -0.2138
     10  C8        10.6640   46.3810   51.9930 C.2     1  4SP1        0.2014
     11  N9        10.7880   45.3880   51.0620 N.2     1  4SP1       -0.1915
     12  C10        4.9380   45.7440   51.8420 C.3     1  4SP1        0.2081
     13  C11        4.0580   46.0110   53.0440 C.3     1  4SP1        0.0438
     14  C12        2.6180   45.5960   52.7190 C.3     1  4SP1        0.0037
     15  C13        1.7050   45.8360   53.9210 C.3     1  4SP1        0.0001
     16  C14        2.2770   45.3040   55.2360 C.3     1  4SP1        0.0000
     17  C15        3.7340   45.7260   55.4460 C.3     1  4SP1        0.0001
     18  C16        4.5760   45.2560   54.2720 C.3     1  4SP1        0.0037
     19  C17        6.2030   42.1010   48.9740 C.ar    1  4SP1        0.0836
     20  C18        5.3360   42.0230   50.0800 C.ar    1  4SP1        0.0188
     21  C19        4.1300   41.3120   49.9790 C.ar    1  4SP1        0.0214
     22  C20        3.7920   40.6400   48.7970 C.ar    1  4SP1        0.1251
     23  C21        4.6640   40.7210   47.7110 C.ar    1  4SP1        0.0214
     24  C22        5.8660   41.4390   47.8020 C.ar    1  4SP1        0.0188
     25  S23        2.4060   39.8040   48.6540 S.O2    1  4SP1        0.0935
     26  O24        2.6670   38.3710   48.8940 O.2     1  4SP1       -0.1503
     27  O25        1.8510   40.0060   47.3150 O.2     1  4SP1       -0.1503
     28  N26        1.3840   40.3000   49.6640 N.3     1  4SP1        0.0392
@<TRIPOS>BOND
     1     1     7    2
     2     1     2    2
     3     2     3    1
     4     2     4    2
     5     3    19    1
     6     4     5    2
     7     5     6    1
     8     5    11    1
     9     6     9    2
    10     6     7    1
    11     7     8    1
    12     8    12    1
    13     9    10    1
    14    10    11    2
    15    12    13    1
    16    13    14    1
    17    13    18    1
    18    14    15    1
    19    15    16    1
    20    16    17    1
    21    17    18    1
    22    19    20   ar
    23    19    24   ar
    24    20    21   ar
    25    21    22   ar
    26    22    23   ar
    27    22    25    1
    28    23    24   ar
    29    25    26    2
    30    25    27    2
    31    25    28    1
