@<TRIPOS>MOLECULE
2j6m_Lig.pdb
 33 37 0 0 0
SMALL
GASTEIGER

@<TRIPOS>ATOM
      1  CAA      -50.3250   -3.0340   -9.6850 C.3     1  AEE1        0.0188
      2  CAB      -51.2870   -2.3080  -25.5730 C.3     1  AEE1        0.0283
      3  CAC      -52.3550    2.0790  -27.6710 C.ar    1  AEE1       -0.0000
      4  CAD      -52.2300    2.2450  -26.3050 C.ar    1  AEE1       -0.0003
      5  CAE      -52.4720    0.8110  -28.2030 C.ar    1  AEE1       -0.0003
      6  CAG      -52.2240    1.1440  -25.4670 C.ar    1  AEE1       -0.0026
      7  CAH      -52.4670   -0.2920  -27.3680 C.ar    1  AEE1       -0.0026
      8  CAI      -51.5450    0.8070  -16.1470 C.ar    1  AEE1       -0.0032
      9  CAJ      -50.0770   -0.8310  -17.0690 C.ar    1  AEE1       -0.0032
     10  CAK      -52.1510    0.9550  -17.3830 C.ar    1  AEE1       -0.0024
     11  CAL      -50.6790   -0.6800  -18.3070 C.ar    1  AEE1       -0.0024
     12  CAM      -51.9570   -0.2180  -20.8220 C.2     1  AEE1        0.0081
     13  CAN      -50.2950   -3.2120  -11.2020 C.3     1  AEE1        0.0722
     14  CAO      -49.4830   -1.0040  -11.6760 C.3     1  AEE1        0.0897
     15  CAP      -48.9970   -2.7720  -13.1700 C.3     1  AEE1        0.0897
     16  CAQ      -50.7820   -0.6920  -12.4130 C.3     1  AEE1        0.0899
     17  CAR      -50.3000   -2.5340  -13.9180 C.3     1  AEE1        0.0899
     18  CAS      -49.8460   -0.2520  -14.6260 C.3     1  AEE1        0.0992
     19  CAX      -50.5050   -0.0850  -15.9900 C.ar    1  AEE1       -0.0062
     20  CAY      -51.7220    0.2090  -18.4630 C.ar    1  AEE1        0.0040
     21  CAZ      -52.3440   -0.1220  -26.0010 C.ar    1  AEE1       -0.0026
     22  NAV      -52.0340   -0.9090  -23.7250 N.pl3   1  AEE1       -0.2175
     23  NAW      -53.3660    1.1590  -19.9400 N.2     1  AEE1       -0.2455
     24  CBA      -52.3280    0.3730  -19.6960 C.3     1  AEE1        0.1493
     25  CBE      -52.3410   -1.3270  -25.0890 C.3     1  AEE1        0.1163
     26  NBF      -49.1860   -2.4340  -11.7620 N.3     1  AEE1       -0.2703
     27  NBG      -50.6950   -1.1260  -13.8110 N.3     1  AEE1       -0.2665
     28  N1       -53.8170    0.5090  -23.8430 N.ar    1  AEE1       -0.2074
     29  C2       -54.6590    1.3430  -23.2760 C.ar    1  AEE1        0.2015
     30  N3       -54.5870    1.6230  -21.9920 N.ar    1  AEE1       -0.2051
     31  C4       -53.6530    1.0650  -21.2250 C.ar    1  AEE1        0.1627
     32  C5       -52.7630    0.1890  -21.7830 C.ar    1  AEE1        0.0665
     33  C6       -52.8630   -0.0780  -23.1290 C.ar    1  AEE1        0.1522
@<TRIPOS>BOND
     1     1    13    1
     2     2    25    1
     3     3     5   ar
     4     3     4   ar
     5     4     6   ar
     6     5     7   ar
     7     6    21   ar
     8     7    21   ar
     9     8    10   ar
    10     8    19   ar
    11     9    11   ar
    12     9    19   ar
    13    10    20   ar
    14    11    20   ar
    15    12    32    2
    16    12    24    1
    17    13    26    1
    18    14    26    1
    19    14    16    1
    20    15    17    1
    21    15    26    1
    22    16    27    1
    23    17    27    1
    24    18    19    1
    25    18    27    1
    26    20    24    1
    27    21    25    1
    28    22    25    1
    29    22    33    1
    30    23    31    2
    31    23    24    1
    32    28    33   ar
    33    28    29   ar
    34    29    30   ar
    35    30    31   ar
    36    31    32   ar
    37    32    33   ar
