@<TRIPOS>MOLECULE
2qoh_Lig.pdb
 28 31 0 0 0
SMALL
GASTEIGER

@<TRIPOS>ATOM
      1  C1        -2.5830    4.3260   20.5700 C.3     1  P3Y1        0.2525
      2  N1        -4.3300    9.2820   24.2840 N.2     1  P3Y1       -0.0311
      3  O1        -2.4310    5.7350   20.8330 O.3     1  P3Y1       -0.4714
      4  C2        -3.6810    8.4920   25.1910 C.2     1  P3Y1        0.2320
      5  C3        -2.6480    7.6050   24.7920 C.2     1  P3Y1        0.0307
      6  C4        -2.3220    7.5860   23.4120 C.3     1  P3Y1        0.0645
      7  C5        -3.0230    8.4280   22.4740 C.2     1  P3Y1        0.0744
      8  C6        -4.0160    9.2540   22.9490 C.2     1  P3Y1        0.3720
      9  C9        -2.9290    8.6200   21.0500 C.2     1  P3Y1        0.0535
     10  C10       -3.9350    9.5940   20.8170 C.2     1  P3Y1        0.2359
     11  N11       -4.6030    9.9910   21.9510 N.2     1  P3Y1       -0.0308
     12  C14       -2.0240    7.9930   20.0120 C.ar    1  P3Y1        0.0376
     13  C15       -1.7860    6.5760   19.9090 C.ar    1  P3Y1        0.1387
     14  C16       -0.9080    6.0890   18.8770 C.ar    1  P3Y1        0.0369
     15  C17       -0.2940    6.9720   17.9750 C.ar    1  P3Y1        0.0031
     16  C18       -0.5290    8.3520   18.0760 C.ar    1  P3Y1        0.0002
     17  C19       -1.3860    8.8520   19.0840 C.ar    1  P3Y1        0.0031
     18  C24       -1.9340    6.7220   25.7790 C.ar    1  P3Y1        0.0194
     19  C25       -1.7690    5.3190   25.5640 C.ar    1  P3Y1        0.0987
     20  N26       -1.1130    4.5020   26.4570 N.ar    1  P3Y1       -0.2422
     21  C27       -0.5920    5.0430   27.6060 C.ar    1  P3Y1        0.1034
     22  C28       -0.7230    6.4300   27.8850 C.ar    1  P3Y1        0.0727
     23  C29       -1.3990    7.2480   26.9530 C.ar    1  P3Y1        0.0074
     24  C33       -0.1550    7.0020   29.1110 C.2     1  P3Y1        0.2506
     25  O34        1.0560    6.9700   29.2950 O.2     1  P3Y1       -0.2699
     26  N35       -1.0060    7.6070   30.0220 N.am    1  P3Y1       -0.2725
     27  C41       -2.2980    7.0490   30.4830 C.3     1  P3Y1        0.1152
     28  C45       -0.5140    8.8570   30.6420 C.3     1  P3Y1        0.1152
@<TRIPOS>BOND
     1     1     3    1
     2     2     4    1
     3     2     8    2
     4     3    13    1
     5     4     5    2
     6     5     6    1
     7     5    18    1
     8     6     7    1
     9     7     8    1
    10     7     9    2
    11     8    11    1
    12     9    10    1
    13     9    12    1
    14    10    11    2
    15    12    13   ar
    16    12    17   ar
    17    13    14   ar
    18    14    15   ar
    19    15    16   ar
    20    16    17   ar
    21    18    19   ar
    22    18    23   ar
    23    19    20   ar
    24    20    21   ar
    25    21    22   ar
    26    22    23   ar
    27    22    24    1
    28    24    25    2
    29    24    26   am
    30    26    27    1
    31    26    28    1
