@<TRIPOS>MOLECULE
3f3v_Lig.pdb
 38 42 0 0 0
SMALL
GASTEIGER

@<TRIPOS>ATOM
      1  CAA        2.1150   35.7970   -9.2860 C.3     1  1BU1        0.0311
      2  CAB       -1.0220   27.4540   -8.2480 C.3     1  1BU1        0.0060
      3  CAC        0.9790   28.0920   -6.9270 C.3     1  1BU1        0.0060
      4  CAD       -1.2480   28.2390   -6.0230 C.3     1  1BU1        0.0060
      5  CAG        2.9720   32.4450  -10.6900 C.ar    1  1BU1        0.0012
      6  CAI        3.0040   33.7670  -10.4080 C.ar    1  1BU1       -0.0042
      7  CAJ        1.9880   31.6870  -10.1390 C.ar    1  1BU1        0.0192
      8  CAK       -4.6500   35.1690   -7.2910 C.ar    1  1BU1        0.0180
      9  CAL       -5.2970   35.5370   -9.5100 C.ar    1  1BU1        0.0180
     10  CAM       -5.6800   35.9640   -6.8690 C.ar    1  1BU1        0.0179
     11  CAN       -6.3370   36.3370   -9.0800 C.ar    1  1BU1        0.0179
     12  CAO      -11.7650   38.8160   -5.0140 C.ar    1  1BU1        0.0196
     13  CAP      -12.0120   37.6510   -5.6720 C.ar    1  1BU1        0.0206
     14  CAQ        1.0700   33.5640   -9.0270 C.ar    1  1BU1        0.0149
     15  CAR       -1.5330   30.5910   -8.0430 C.ar    1  1BU1        0.0527
     16  CAS       -9.5100   38.7770   -5.7910 C.ar    1  1BU1        0.0224
     17  CAZ       -2.8330   33.1740   -8.4240 C.2     1  1BU1        0.3491
     18  NAE      -10.3200   40.5050   -4.4220 N.pl3   1  1BU1       -0.1281
     19  NAV        0.5300   30.4060   -8.3540 N.ar    1  1BU1       -0.1683
     20  NAW       -3.4090   34.1660   -9.0420 N.am    1  1BU1       -0.1606
     21  NAX       -1.7850   32.7080   -9.0140 N.am    1  1BU1       -0.1418
     22  NAY       -7.5620   37.3420   -7.3330 N.pl3   1  1BU1       -0.1940
     23  OAF       -3.1890   32.7220   -7.3730 O.2     1  1BU1       -0.2484
     24  CBA        2.0660   34.3150   -9.5840 C.ar    1  1BU1       -0.0204
     25  CBB      -10.5190   39.3810   -5.0700 C.ar    1  1BU1        0.0893
     26  CBC       -4.4350   34.9190   -8.6220 C.ar    1  1BU1        0.0751
     27  CBD       -6.5570   36.5590   -7.7520 C.ar    1  1BU1        0.0722
     28  CBE        1.0400   32.2470   -9.3330 C.ar    1  1BU1        0.0839
     29  CBF       -0.4940   29.8160   -7.8580 C.ar    1  1BU1        0.0811
     30  CBG       -1.0880   31.6680   -8.6140 C.ar    1  1BU1        0.1587
     31  CBL       -0.4440   28.4130   -7.2500 C.3     1  1BU1        0.0372
     32  NBK        0.1640   31.4620   -8.8120 N.ar    1  1BU1       -0.2145
     33  N1        -9.1670   35.8230   -7.7430 N.ar    1  1BU1       -0.2072
     34  C2       -10.3560   35.3310   -7.6420 C.ar    1  1BU1        0.2001
     35  N3       -11.2740   35.9340   -6.9890 N.ar    1  1BU1       -0.2239
     36  C4       -11.0050   37.0580   -6.3800 C.ar    1  1BU1        0.0859
     37  C5        -9.7470   37.6040   -6.4520 C.ar    1  1BU1        0.0524
     38  C6        -8.7980   36.9380   -7.1820 C.ar    1  1BU1        0.1549
@<TRIPOS>BOND
     1     1    24    1
     2     2    31    1
     3     3    31    1
     4     4    31    1
     5     5     7   ar
     6     5     6   ar
     7     6    24   ar
     8     7    28   ar
     9     8    10   ar
    10     8    26   ar
    11     9    11   ar
    12     9    26   ar
    13    10    27   ar
    14    11    27   ar
    15    12    13   ar
    16    12    25   ar
    17    13    36   ar
    18    14    28   ar
    19    14    24   ar
    20    15    30   ar
    21    15    29   ar
    22    16    25   ar
    23    16    37   ar
    24    17    20   am
    25    17    23    2
    26    17    21   am
    27    18    25    1
    28    19    29   ar
    29    19    32   ar
    30    20    26    1
    31    21    30    1
    32    22    27    1
    33    22    38    1
    34    28    32    1
    35    29    31    1
    36    30    32   ar
    37    33    34   ar
    38    33    38   ar
    39    34    35   ar
    40    35    36   ar
    41    36    37   ar
    42    37    38   ar
