@<TRIPOS>MOLECULE
3f3w_Lig.pdb
 38 42 0 0 0
SMALL
GASTEIGER

@<TRIPOS>ATOM
      1  CAA       -1.4980   35.7560    8.7070 C.3     1  1BU1        0.0311
      2  CAB        1.9730   27.2280    7.2850 C.3     1  1BU1        0.0060
      3  CAC       -0.3160   27.7060    6.2360 C.3     1  1BU1        0.0060
      4  CAD        1.8310   28.3070    5.0350 C.3     1  1BU1        0.0060
      5  CAG       -2.6590   32.3400   10.0760 C.ar    1  1BU1        0.0012
      6  CAI       -2.5980   33.6940    9.8180 C.ar    1  1BU1       -0.0042
      7  CAJ       -1.6920   31.4950    9.5190 C.ar    1  1BU1        0.0192
      8  CAK        6.1430   34.1190    7.9940 C.ar    1  1BU1        0.0180
      9  CAL        5.0360   36.1250    8.7340 C.ar    1  1BU1        0.0180
     10  CAM        7.2840   34.8730    7.6850 C.ar    1  1BU1        0.0179
     11  CAN        6.1940   36.8660    8.4120 C.ar    1  1BU1        0.0179
     12  CAO       12.4650   38.3900    4.7680 C.ar    1  1BU1        0.0196
     13  CAP       12.7980   37.1910    5.3790 C.ar    1  1BU1        0.0206
     14  CAQ       -0.6300   33.3550    8.4760 C.ar    1  1BU1        0.0149
     15  CAR        2.1360   30.3360    7.4910 C.ar    1  1BU1        0.0527
     16  CAS       10.2610   38.3830    5.8300 C.ar    1  1BU1        0.0224
     17  CAZ        3.3670   32.9710    8.1430 C.2     1  1BU1        0.3491
     18  NAE       10.9360   40.1390    4.4070 N.pl3   1  1BU1       -0.1281
     19  NAV       -0.0540   30.1120    7.6050 N.ar    1  1BU1       -0.1683
     20  NAW        3.8660   34.0320    8.8240 N.am    1  1BU1       -0.1606
     21  NAX        2.2520   32.4120    8.6330 N.am    1  1BU1       -0.1418
     22  NAY        8.4290   37.0110    7.5890 N.pl3   1  1BU1       -0.1940
     23  OAF        3.9100   32.5540    7.1230 O.2     1  1BU1       -0.2484
     24  CBA       -1.5810   34.2180    9.0170 C.ar    1  1BU1       -0.0204
     25  CBB       11.2130   38.9770    4.9950 C.ar    1  1BU1        0.0893
     26  CBC        4.9870   34.7400    8.5120 C.ar    1  1BU1        0.0751
     27  CBD        7.3330   36.2640    7.8840 C.ar    1  1BU1        0.0722
     28  CBE       -0.6610   31.9860    8.7340 C.ar    1  1BU1        0.0839
     29  CBF        1.0760   29.5610    7.1600 C.ar    1  1BU1        0.0811
     30  CBG        1.5950   31.3730    8.1210 C.ar    1  1BU1        0.1587
     31  CBL        1.1350   28.2040    6.4140 C.3     1  1BU1        0.0372
     32  NBK        0.2570   31.1640    8.1880 N.ar    1  1BU1       -0.2145
     33  N1        10.0980   35.3240    7.8340 N.ar    1  1BU1       -0.2072
     34  C2        11.2930   34.7790    7.5750 C.ar    1  1BU1        0.2001
     35  N3        12.1710   35.3950    6.7830 N.ar    1  1BU1       -0.2239
     36  C4        11.8580   36.5880    6.2170 C.ar    1  1BU1        0.0859
     37  C5        10.5810   37.1740    6.4450 C.ar    1  1BU1        0.0524
     38  C6         9.6720   36.5080    7.2970 C.ar    1  1BU1        0.1549
@<TRIPOS>BOND
     1     1    24    1
     2     2    31    1
     3     3    31    1
     4     4    31    1
     5     5     7   ar
     6     5     6   ar
     7     6    24   ar
     8     7    28   ar
     9     8    10   ar
    10     8    26   ar
    11     9    11   ar
    12     9    26   ar
    13    10    27   ar
    14    11    27   ar
    15    12    13   ar
    16    12    25   ar
    17    13    36   ar
    18    14    28   ar
    19    14    24   ar
    20    15    30   ar
    21    15    29   ar
    22    16    25   ar
    23    16    37   ar
    24    17    20   am
    25    17    23    2
    26    17    21   am
    27    18    25    1
    28    19    29   ar
    29    19    32   ar
    30    20    26    1
    31    21    30    1
    32    22    27    1
    33    22    38    1
    34    28    32    1
    35    29    31    1
    36    30    32   ar
    37    33    34   ar
    38    33    38   ar
    39    34    35   ar
    40    35    36   ar
    41    36    37   ar
    42    37    38   ar
