@<TRIPOS>MOLECULE
3w2s_Lig.pdb
 40 44 0 0 0
SMALL
GASTEIGER

@<TRIPOS>ATOM
      1 CL1         8.0750   -1.5550    8.3270 Cl      1  W2R1       -0.0790
      2  C1         7.3170    4.6510    7.2570 C.ar    1  W2R1        0.0045
      3  C2         6.0730    4.8240    6.6950 C.ar    1  W2R1        0.0169
      4  C3         5.9920    1.1650   11.2350 C.ar    1  W2R1        0.0197
      5  C4         7.7200    3.3840    7.6270 C.ar    1  W2R1        0.0376
      6  C5         6.2520    1.5790    9.9470 C.ar    1  W2R1        0.0397
      7  C6         8.3250   -1.4620   17.1090 C.ar    1  W2R1        0.0394
      8  C7         5.6160    2.4880    6.8580 C.ar    1  W2R1        0.0541
      9  C8         7.0150   -0.9560   10.7700 C.ar    1  W2R1        0.0310
     10  C9         7.0010   -1.8240   17.1680 C.ar    1  W2R1        0.0777
     11  C10        9.5940   -0.0680   14.0500 C.ar    1  W2R1        0.2002
     12  C11        8.5660   -0.9470   15.8110 C.ar    1  W2R1        0.1031
     13  C12        7.3830   -0.9980   15.0920 C.ar    1  W2R1        0.1117
     14  C13        5.2180    3.7600    6.4970 C.ar    1  W2R1        0.0780
     15  C14        6.3790   -0.1030   11.6520 C.ar    1  W2R1        0.0732
     16  C15        6.8570    2.3270    7.4250 C.ar    1  W2R1        0.1466
     17  C16        6.9030    0.7120    9.0860 C.ar    1  W2R1        0.1558
     18  C17        7.2720   -0.5470    9.4860 C.ar    1  W2R1        0.0934
     19  C18        7.3340   -0.5620   13.7760 C.ar    1  W2R1        0.1709
     20  C19        2.8990    3.1250    6.1010 C.2     1  W2R1        0.3434
     21  C20       -1.9640    2.0650    4.3190 C.3     1  W2R1        0.0001
     22  C21       -0.7930    1.1360    4.5380 C.3     1  W2R1        0.0018
     23  C22       -1.9500    3.2040    5.3170 C.3     1  W2R1        0.0018
     24  C23        0.5170    1.9020    4.4730 C.3     1  W2R1        0.0217
     25  C24       -0.6270    3.9430    5.2800 C.3     1  W2R1        0.0217
     26  C25        0.5200    2.9830    5.5380 C.3     1  W2R1        0.0970
     27  C26        5.0420   -1.8330   15.6810 C.3     1  W2R1        0.1382
     28  C27        4.1150   -0.6950   16.1030 C.3     1  W2R1        0.1667
     29  C28        3.2150    1.9740   13.9120 C.3     1  W2R1        0.2140
     30  C29        3.3640    1.3260   15.2570 C.3     1  W2R1        0.1777
     31  N30        9.7240   -0.4730   15.3180 N.ar    1  W2R1       -0.2224
     32  N31        8.5000   -0.0970   13.2880 N.ar    1  W2R1       -0.2057
     33  N32        6.4460   -1.5330   15.9510 N.ar    1  W2R1       -0.3200
     34  N33        6.1650   -0.5630   12.9540 N.pl3   1  W2R1       -0.1928
     35  N34        3.9710    3.9730    5.9170 N.am    1  W2R1       -0.1609
     36  N35        1.7670    3.7130    5.6040 N.am    1  W2R1       -0.1887
     37  O36        2.9310    1.9970    6.5960 O.2     1  W2R1       -0.2488
     38  O37        2.4280    1.1120   13.1130 O.3     1  W2R1       -0.2176
     39  O38        7.2340    1.0460    7.7850 O.3     1  W2R1       -0.4526
     40  O39        4.2700    0.2510   15.0550 O.3     1  W2R1       -0.3489
@<TRIPOS>BOND
     1     1    18    1
     2     2     3   ar
     3     2     5   ar
     4     3    14   ar
     5     4     6   ar
     6     4    15   ar
     7     5    16   ar
     8     6    17   ar
     9     7    10   ar
    10     7    12   ar
    11     8    14   ar
    12     8    16   ar
    13     9    15   ar
    14     9    18   ar
    15    10    33   ar
    16    11    31   ar
    17    11    32   ar
    18    12    13   ar
    19    12    31   ar
    20    13    19   ar
    21    13    33   ar
    22    14    35    1
    23    15    34    1
    24    16    39    1
    25    17    18   ar
    26    17    39    1
    27    19    32   ar
    28    19    34    1
    29    20    35   am
    30    20    36   am
    31    20    37    2
    32    21    22    1
    33    21    23    1
    34    22    24    1
    35    23    25    1
    36    24    26    1
    37    25    26    1
    38    26    36    1
    39    27    28    1
    40    27    33    1
    41    28    40    1
    42    29    30    1
    43    29    38    1
    44    30    40    1
