@<TRIPOS>MOLECULE
4mxx_Lig.pdb
 36 39 0 0 0
SMALL
GASTEIGER

@<TRIPOS>ATOM
      1  CAA       12.0200  -40.0810   -4.3880 C.3     1  DB81        0.2526
      2  CAC       16.2180  -39.9990   -3.6690 C.3     1  DB81        0.0760
      3  CAG        9.3070  -33.4420   -8.9250 C.1     1  DB81        0.1033
      4  CAH       11.8640  -33.8070   -8.4590 C.ar    1  DB81        0.1104
      5  CAI        5.4390  -34.7730   -9.3170 C.ar    1  DB81        0.0272
      6  CAJ        8.1810  -35.6580  -10.2220 C.ar    1  DB81        0.0551
      7  CAK       13.8760  -36.7840   -6.9160 C.ar    1  DB81        0.0592
      8  CAL       11.0550  -37.8680   -6.7890 C.ar    1  DB81        0.0429
      9  CAM       16.7720  -39.4360   -4.9680 C.3     1  DB81        0.0646
     10  CAN       15.8350  -38.3520   -5.5010 C.3     1  DB81        0.2070
     11  CAO       20.7460  -41.2150   -0.3370 C.3     1  DB81        0.0897
     12  CAP       17.3940  -39.7850   -1.3390 C.3     1  DB81        0.0897
     13  CAQ       18.6890  -40.1030   -3.3050 C.3     1  DB81        0.0897
     14  CAR       18.3700  -40.6840   -0.5540 C.3     1  DB81        0.0897
     15  CAS       19.6240  -41.0130   -2.5700 C.3     1  DB81        0.0897
     16  CAX        7.1890  -35.1480  -11.2210 C.ar    1  DB81        0.1505
     17  CAY        5.8250  -34.7130  -10.7550 C.ar    1  DB81        0.0924
     18  CAZ        6.4250  -35.2750   -8.3180 C.ar    1  DB81        0.0739
     19  NAD        8.4100  -32.8390   -9.2980 N.1     1  DB81       -0.1907
     20  NAT       12.9470  -34.6170   -7.9760 N.ar    1  DB81       -0.2429
     21  NAU        8.7670  -36.2020   -7.7980 N.pl3   1  DB81       -0.2107
     22  OAV       11.9690  -39.9290   -5.7710 O.3     1  DB81       -0.4684
     23  OAW       14.6270  -38.9380   -5.8720 O.3     1  DB81       -0.4723
     24  CBA       10.4410  -34.2890   -8.4230 C.ar    1  DB81        0.1027
     25  CBB        7.7950  -35.7210   -8.7630 C.ar    1  DB81        0.0841
     26  CBC       12.2030  -38.6790   -6.2960 C.ar    1  DB81        0.1725
     27  CBD       13.5890  -38.1460   -6.3570 C.ar    1  DB81        0.1737
     28  CBE       10.1360  -35.6650   -7.8610 C.ar    1  DB81        0.0831
     29  CBF       12.7230  -35.9360   -7.4300 C.ar    1  DB81        0.0858
     30  CBG       11.3150  -36.5000   -7.3560 C.ar    1  DB81        0.0368
     31  NBH       17.3680  -40.2450   -2.7340 N.3     1  DB81       -0.2702
     32  NBI       19.6750  -40.6820   -1.1710 N.3     1  DB81       -0.2691
     33 CL1         4.6600  -34.1270  -11.8810 Cl      1  DB81       -0.0791
     34 CL2         5.9380  -35.3430   -6.6570 Cl      1  DB81       -0.0809
     35  C01        8.8320  -35.3080  -12.9820 C.3     1  DB81        0.2525
     36  O02        7.5250  -35.0820  -12.5600 O.3     1  DB81       -0.4705
@<TRIPOS>BOND
     1     1    22    1
     2     2     9    1
     3     2    31    1
     4     3    24    1
     5     3    19    3
     6     4    20   ar
     7     4    24   ar
     8     5    17   ar
     9     5    18   ar
    10     6    16   ar
    11     6    25   ar
    12     7    27   ar
    13     7    29   ar
    14     8    26   ar
    15     8    30   ar
    16     9    10    1
    17    10    23    1
    18    11    32    1
    19    12    14    1
    20    12    31    1
    21    13    15    1
    22    13    31    1
    23    14    32    1
    24    15    32    1
    25    16    17   ar
    26    16    36    1
    27    17    33    1
    28    18    25   ar
    29    18    34    1
    30    20    29   ar
    31    21    25    1
    32    21    28    1
    33    22    26    1
    34    23    27    1
    35    24    28   ar
    36    26    27   ar
    37    28    30   ar
    38    29    30   ar
    39    35    36    1
