@<TRIPOS>MOLECULE
4twp_Lig.pdb
 28 31 0 0 0
SMALL
GASTEIGER

@<TRIPOS>ATOM
      1  C01       56.1980   11.2450   54.5130 C.ar    1  AXI1        0.0191
      2  C02       57.0670   12.3110   54.3540 C.ar    1  AXI1        0.0814
      3  N03       57.6910   12.8560   55.4080 N.ar    1  AXI1       -0.2438
      4  C04       57.5010   12.3940   56.6560 C.ar    1  AXI1        0.0988
      5  C05       56.6410   11.3290   56.8630 C.ar    1  AXI1        0.0207
      6  C06       55.9830   10.7480   55.7900 C.ar    1  AXI1        0.0031
      7  C07       59.3910   15.7140   48.7410 C.ar    1  AXI1        0.0310
      8  C08       59.3110   15.7500   50.1410 C.ar    1  AXI1        0.0066
      9  C09       58.5370   14.7940   50.8280 C.ar    1  AXI1        0.0036
     10  C10       57.8360   13.7940   50.1000 C.ar    1  AXI1        0.0388
     11  C11       57.9160   13.7580   48.7300 C.ar    1  AXI1        0.1048
     12  C12       58.7100   14.7330   48.0280 C.ar    1  AXI1        0.0274
     13  C13       56.9880   12.7120   50.5070 C.ar    1  AXI1        0.1044
     14  N14       56.5920   12.0680   49.3930 N.ar    1  AXI1       -0.1479
     15  N15       57.1460   12.6910   48.2980 N.ar    1  AXI1       -0.1479
     16  C16       56.6090   12.3550   51.9180 C.2     1  AXI1        0.0225
     17  C17       57.3130   12.8630   52.9770 C.2     1  AXI1        0.0207
     18  C18       62.0460   16.8310   48.5450 C.ar    1  AXI1        0.0339
     19  C19       62.4850   15.6480   49.1080 C.ar    1  AXI1        0.0066
     20  C20       63.7750   15.5550   49.6320 C.ar    1  AXI1        0.0005
     21  C21       64.6240   16.6610   49.5860 C.ar    1  AXI1        0.0002
     22  C22       64.1850   17.8490   49.0220 C.ar    1  AXI1        0.0051
     23  C23       62.9000   17.9420   48.5020 C.ar    1  AXI1        0.0610
     24  S24       60.3880   16.9320   47.8840 S.3     1  AXI1       -0.0867
     25  C80       62.4410   19.2240   47.8990 C.2     1  AXI1        0.2653
     26  O81       62.0220   19.2470   46.7580 O.2     1  AXI1       -0.2684
     27  N82       62.4980   20.4290   48.6620 N.am    1  AXI1       -0.1998
     28  C88       62.0520   21.6740   48.0700 C.3     1  AXI1        0.1388
@<TRIPOS>BOND
     1     1     2   ar
     2     1     6   ar
     3     2     3   ar
     4     2    17    1
     5     3     4   ar
     6     4     5   ar
     7     5     6   ar
     8     7     8   ar
     9     7    12   ar
    10     7    24    1
    11     8     9   ar
    12     9    10   ar
    13    10    11   ar
    14    10    13   ar
    15    11    15   ar
    16    11    12   ar
    17    13    16    1
    18    13    14   ar
    19    14    15   ar
    20    16    17    2
    21    18    19   ar
    22    18    24    1
    23    18    23   ar
    24    19    20   ar
    25    20    21   ar
    26    21    22   ar
    27    22    23   ar
    28    23    25    1
    29    25    27   am
    30    25    26    2
    31    27    28    1
