@<TRIPOS>MOLECULE
5ap3_Lig.pdb
 33 37 0 0 0
SMALL
GASTEIGER

@<TRIPOS>ATOM
      1  N          0.3900   44.0940  130.0840 N.2     1  A5U1       -0.1777
      2  C          0.4470   43.9480  128.7050 C.1     1  A5U1        0.1135
      3  O         -3.0650   39.5220  129.3510 O.2     1  A5U1       -0.2520
      4  C1        -0.9050   42.1370  128.6760 C.3     1  A5U1        0.2309
      5  N1        -0.1650   42.9830  127.9300 N.2     1  A5U1       -0.1814
      6  O1         1.4370   47.4750  126.8380 O.3     1  A5U1       -0.4700
      7  C2        -1.0480   42.2130  130.0950 C.2     1  A5U1        0.0948
      8  N2        -1.9110   41.1870  130.4890 N.am    1  A5U1       -0.2400
      9  O2         2.1600   45.3210  122.6400 O.3     1  A5U1       -0.4790
     10  C3        -0.3680   43.2140  130.7560 C.2     1  A5U1        0.1249
     11  N3        -1.6750   41.0600  128.2250 N.am    1  A5U1       -0.2421
     12  C4        -2.3080   40.4660  129.3470 C.2     1  A5U1        0.3124
     13  N4         1.1940   44.9380  128.0890 N.pl3   1  A5U1       -0.1430
     14  C5        -1.8050   40.6070  126.8370 C.3     1  A5U1        0.0789
     15  N5        -0.3210   45.8340  119.2440 N.3     1  A5U1       -0.2713
     16  C6        -2.3780   41.7050  125.9370 C.3     1  A5U1        0.0199
     17  C7        -1.8160   41.4540  124.5440 C.3     1  A5U1        0.0018
     18  C8        -0.5470   40.6250  124.7280 C.3     1  A5U1        0.0018
     19  C9        -0.4420   40.2700  126.2100 C.3     1  A5U1        0.0199
     20  C10       -2.3620   40.8790  131.8320 C.3     1  A5U1        0.1215
     21  C11        1.4340   45.0940  126.7110 C.ar    1  A5U1        0.1156
     22  C12        1.5600   43.9410  125.9290 C.ar    1  A5U1        0.0235
     23  C13        1.7910   44.0340  124.5710 C.ar    1  A5U1        0.0385
     24  C14        1.9010   45.2920  123.9800 C.ar    1  A5U1        0.1415
     25  C15        1.7750   46.4480  124.7240 C.ar    1  A5U1        0.0751
     26  C16        1.5440   46.3340  126.0930 C.ar    1  A5U1        0.1576
     27  C17        0.4280   48.3440  126.3790 C.3     1  A5U1        0.2525
     28  C18        1.0310   45.2430  121.8000 C.3     1  A5U1        0.1687
     29  C19        0.6840   46.6840  121.4230 C.3     1  A5U1        0.0609
     30  C20       -0.5220   46.6500  120.4690 C.3     1  A5U1        0.0758
     31  C21        0.1780   44.4750  119.5900 C.3     1  A5U1        0.0758
     32  C22        1.3950   44.4680  120.5290 C.3     1  A5U1        0.0609
     33  C23       -1.5510   45.7720  118.4160 C.3     1  A5U1        0.0896
@<TRIPOS>BOND
     1     1     2    2
     2     1    10    1
     3     2    13    1
     4     2     5    2
     5     3    12    2
     6     4     5    1
     7     4     7    1
     8     4    11    1
     9     6    27    1
    10     6    26    1
    11     7    10    2
    12     7     8    1
    13     8    20    1
    14     8    12   am
    15     9    28    1
    16     9    24    1
    17    11    14    1
    18    11    12   am
    19    13    21    1
    20    14    16    1
    21    14    19    1
    22    15    30    1
    23    15    33    1
    24    15    31    1
    25    16    17    1
    26    17    18    1
    27    18    19    1
    28    21    22   ar
    29    21    26   ar
    30    22    23   ar
    31    23    24   ar
    32    24    25   ar
    33    25    26   ar
    34    28    29    1
    35    28    32    1
    36    29    30    1
    37    31    32    1
