@<TRIPOS>MOLECULE
5em7_Lig_A.pdb
 33 36 0 0 0
SMALL
GASTEIGER

@<TRIPOS>ATOM
      1  C1       -49.8910   -1.2660  -11.2920 C.3     1  5Q41        0.0897
      2  N2       -50.2410   -0.9440  -12.6840 N.3     1  5Q41       -0.2686
      3  C3       -51.5560   -0.2800  -12.7520 C.3     1  5Q41        0.0938
      4  C4       -51.9450   -0.1330  -14.2280 C.3     1  5Q41        0.1081
      5  N5       -50.9100    0.5970  -15.0080 N.pl3   1  5Q41       -0.3046
      6  C6       -49.5210    0.0920  -14.8220 C.3     1  5Q41        0.1081
      7  C7       -49.1770   -0.1520  -13.3390 C.3     1  5Q41        0.0938
      8  C8       -51.3170    0.7120  -16.3600 C.ar    1  5Q41        0.0480
      9  C9       -52.2790    1.6740  -16.7040 C.ar    1  5Q41        0.0159
     10  C10      -52.7340    1.7840  -18.0130 C.ar    1  5Q41        0.0179
     11  C11      -52.2440    0.9430  -19.0190 C.ar    1  5Q41        0.0738
     12  C12      -51.3040   -0.0400  -18.6770 C.ar    1  5Q41        0.0179
     13  C13      -50.8470   -0.1540  -17.3680 C.ar    1  5Q41        0.0159
     14  N14      -52.7930    1.0990  -20.3150 N.am    1  5Q41       -0.1753
     15  C15      -52.4950    0.4600  -21.4810 C.2     1  5Q41        0.2749
     16  O16      -51.6190   -0.3850  -21.4880 O.2     1  5Q41       -0.2678
     17  C17      -53.2570    0.7530  -22.7320 C.ar    1  5Q41        0.1264
     18  C18      -52.9250    0.1460  -23.9920 C.ar    1  5Q41        0.0811
     19  C19      -53.6940    0.4600  -25.1400 C.ar    1  5Q41        0.0353
     20  C20      -54.7480    1.3040  -25.0580 C.ar    1  5Q41        0.0761
     21  N21      -55.0750    1.8930  -23.8780 N.ar    1  5Q41       -0.3197
     22  C23      -54.3860    1.6500  -22.7350 C.ar    1  5Q41        0.2634
     23  O24      -54.7590    2.2370  -21.7310 O.2     1  5Q41       -0.2670
     24  N25      -51.8460   -0.7060  -24.1590 N.pl3   1  5Q41       -0.2091
     25  C26      -51.9070   -2.0780  -24.4620 C.ar    1  5Q41        0.1043
     26  C27      -52.1060   -2.9990  -23.4270 C.ar    1  5Q41        0.0196
     27  C28      -52.1240   -4.3650  -23.6890 C.ar    1  5Q41        0.0015
     28  C29      -51.8990   -4.8260  -24.9820 C.ar    1  5Q41        0.0032
     29  C30      -51.6630   -3.9240  -26.0160 C.ar    1  5Q41        0.0382
     30  C31      -51.6690   -2.5430  -25.7720 C.ar    1  5Q41        0.1538
     31  O32      -51.4240   -1.6580  -26.7900 O.3     1  5Q41       -0.4701
     32  C33      -52.3560   -1.5390  -27.8760 C.3     1  5Q41        0.2525
     33  H22      -55.8280    2.5040  -23.8550 H       1  5Q41        0.1690
@<TRIPOS>BOND
     1     1     2    1
     2     2     3    1
     3     2     7    1
     4     3     4    1
     5     4     5    1
     6     5     6    1
     7     5     8    1
     8     6     7    1
     9     8     9   ar
    10     8    13   ar
    11     9    10   ar
    12    10    11   ar
    13    11    12   ar
    14    11    14    1
    15    12    13   ar
    16    14    15   am
    17    15    16    2
    18    15    17    1
    19    17    18   ar
    20    17    22   ar
    21    18    19   ar
    22    18    24    1
    23    19    20   ar
    24    20    21   ar
    25    21    22   ar
    26    21    33    1
    27    22    23    2
    28    24    25    1
    29    25    26   ar
    30    25    30   ar
    31    26    27   ar
    32    27    28   ar
    33    28    29   ar
    34    29    30   ar
    35    30    31    1
    36    31    32    1
