C22H20N4O2
APtclcactv01052012553D 0   0.00000     0.00000     1
 
 48 51  0  0  0  0  0  0  0  0999 V2000
   -2.5830    4.3260   20.5700 C   0  0  0  0  0  0  0  0  0  0  0  0
   -4.3300    9.2820   24.2840 N   0  0  0  0  0  0  0  0  0  0  0  0
   -2.4310    5.7350   20.8330 O   0  0  0  0  0  0  0  0  0  0  0  0
   -3.6810    8.4920   25.1910 C   0  0  0  0  0  0  0  0  0  0  0  0
   -2.6480    7.6050   24.7920 C   0  0  0  0  0  0  0  0  0  0  0  0
   -2.3220    7.5860   23.4120 C   0  0  0  0  0  0  0  0  0  0  0  0
   -3.0230    8.4280   22.4740 C   0  0  0  0  0  0  0  0  0  0  0  0
   -4.0160    9.2540   22.9490 C   0  0  0  0  0  0  0  0  0  0  0  0
   -2.9290    8.6200   21.0500 C   0  0  0  0  0  0  0  0  0  0  0  0
   -3.9350    9.5940   20.8170 C   0  0  0  0  0  0  0  0  0  0  0  0
   -4.6030    9.9910   21.9510 N   0  0  0  0  0  0  0  0  0  0  0  0
   -2.0240    7.9930   20.0120 C   0  0  0  0  0  0  0  0  0  0  0  0
   -1.7860    6.5760   19.9090 C   0  0  0  0  0  0  0  0  0  0  0  0
   -0.9080    6.0890   18.8770 C   0  0  0  0  0  0  0  0  0  0  0  0
   -0.2940    6.9720   17.9750 C   0  0  0  0  0  0  0  0  0  0  0  0
   -0.5290    8.3520   18.0760 C   0  0  0  0  0  0  0  0  0  0  0  0
   -1.3860    8.8520   19.0840 C   0  0  0  0  0  0  0  0  0  0  0  0
   -1.9340    6.7220   25.7790 C   0  0  0  0  0  0  0  0  0  0  0  0
   -1.7690    5.3190   25.5640 C   0  0  0  0  0  0  0  0  0  0  0  0
   -1.1130    4.5020   26.4570 N   0  0  0  0  0  0  0  0  0  0  0  0
   -0.5920    5.0430   27.6060 C   0  0  0  0  0  0  0  0  0  0  0  0
   -0.7230    6.4300   27.8850 C   0  0  0  0  0  0  0  0  0  0  0  0
   -1.3990    7.2480   26.9530 C   0  0  0  0  0  0  0  0  0  0  0  0
   -0.1550    7.0020   29.1110 C   0  0  0  0  0  0  0  0  0  0  0  0
    1.0560    6.9700   29.2950 O   0  0  0  0  0  0  0  0  0  0  0  0
   -1.0060    7.6070   30.0220 N   0  0  0  0  0  0  0  0  0  0  0  0
   -2.2980    7.0490   30.4830 C   0  0  0  0  0  0  0  0  0  0  0  0
   -0.5140    8.8570   30.6420 C   0  0  0  0  0  0  0  0  0  0  0  0
   -1.5737    3.9013   20.3600 H   0  0  0  0  0  0  0  0  0  0  0  0
   -3.0887    4.2098   19.5831 H   0  0  0  0  0  0  0  0  0  0  0  0
   -3.0945    3.6591   21.3027 H   0  0  0  0  0  0  0  0  0  0  0  0
   -3.9914    8.5704   26.2465 H   0  0  0  0  0  0  0  0  0  0  0  0
   -1.5193    6.9130   23.0665 H   0  0  0  0  0  0  0  0  0  0  0  0
   -4.1800   10.0122   19.8262 H   0  0  0  0  0  0  0  0  0  0  0  0
   -5.3574   10.6726   22.0327 H   0  0  0  0  0  0  0  0  0  0  0  0
   -0.7002    5.0106   18.7747 H   0  0  0  0  0  0  0  0  0  0  0  0
    0.3725    6.5818   17.1876 H   0  0  0  0  0  0  0  0  0  0  0  0
   -0.0419    9.0411   17.3657 H   0  0  0  0  0  0  0  0  0  0  0  0
   -1.5612    9.9391   19.1480 H   0  0  0  0  0  0  0  0  0  0  0  0
   -2.1713    4.8388   24.6561 H   0  0  0  0  0  0  0  0  0  0  0  0
   -0.0700    4.3656   28.3026 H   0  0  0  0  0  0  0  0  0  0  0  0
   -1.5123    8.3278   27.1474 H   0  0  0  0  0  0  0  0  0  0  0  0
   -2.0836    6.0275   30.8751 H   0  0  0  0  0  0  0  0  0  0  0  0
   -2.9021    6.8433   29.5687 H   0  0  0  0  0  0  0  0  0  0  0  0
   -2.9828    7.5358   31.2160 H   0  0  0  0  0  0  0  0  0  0  0  0
   -0.2308    9.5865   29.8477 H   0  0  0  0  0  0  0  0  0  0  0  0
    0.4799    8.6783   31.1147 H   0  0  0  0  0  0  0  0  0  0  0  0
   -1.1988    9.3438   31.3750 H   0  0  0  0  0  0  0  0  0  0  0  0
  1  3  1  0  0  0  0
  2  4  1  0  0  0  0
  2  8  2  0  0  0  0
  3 13  1  0  0  0  0
  4  5  2  0  0  0  0
  5  6  1  0  0  0  0
  5 18  1  0  0  0  0
  6  7  2  0  0  0  0
  7  8  1  0  0  0  0
  7  9  1  0  0  0  0
  8 11  1  0  0  0  0
  9 10  2  0  0  0  0
  9 12  1  0  0  0  0
 10 11  1  0  0  0  0
 12 17  1  0  0  0  0
 12 13  2  0  0  0  0
 13 14  1  0  0  0  0
 14 15  2  0  0  0  0
 15 16  1  0  0  0  0
 16 17  2  0  0  0  0
 18 23  2  0  0  0  0
 18 19  1  0  0  0  0
 19 20  2  0  0  0  0
 20 21  1  0  0  0  0
 21 22  2  0  0  0  0
 22 23  1  0  0  0  0
 22 24  1  0  0  0  0
 24 25  2  0  0  0  0
 24 26  1  0  0  0  0
 26 28  1  0  0  0  0
 26 27  1  0  0  0  0
  1 29  1  0  0  0  0
  1 30  1  0  0  0  0
  1 31  1  0  0  0  0
  4 32  1  0  0  0  0
  6 33  1  0  0  0  0
 10 34  1  0  0  0  0
 11 35  1  0  0  0  0
 14 36  1  0  0  0  0
 15 37  1  0  0  0  0
 16 38  1  0  0  0  0
 17 39  1  0  0  0  0
 19 40  1  0  0  0  0
 21 41  1  0  0  0  0
 23 42  1  0  0  0  0
 27 43  1  0  0  0  0
 27 44  1  0  0  0  0
 27 45  1  0  0  0  0
 28 46  1  0  0  0  0
 28 47  1  0  0  0  0
 28 48  1  0  0  0  0
M  END
> <UNIQUE_SMILES>
COc1ccccc1c2c[nH]c3ncc(cc23)c4cncc(c4)C(=O)N(C)C

$$$$
