C29H28N8O
APtclcactv01052012583D 0   0.00000     0.00000     1
 
 66 70  0  0  0  0  0  0  0  0999 V2000
   -1.4980   35.7560    8.7070 C   0  0  0  0  0  0  0  0  0  0  0  0
    1.9730   27.2280    7.2850 C   0  0  0  0  0  0  0  0  0  0  0  0
   -0.3160   27.7060    6.2360 C   0  0  0  0  0  0  0  0  0  0  0  0
    1.8310   28.3070    5.0350 C   0  0  0  0  0  0  0  0  0  0  0  0
   -2.6590   32.3400   10.0760 C   0  0  0  0  0  0  0  0  0  0  0  0
   -2.5980   33.6940    9.8180 C   0  0  0  0  0  0  0  0  0  0  0  0
   -1.6920   31.4950    9.5190 C   0  0  0  0  0  0  0  0  0  0  0  0
    6.1430   34.1190    7.9940 C   0  0  0  0  0  0  0  0  0  0  0  0
    5.0360   36.1250    8.7340 C   0  0  0  0  0  0  0  0  0  0  0  0
    7.2840   34.8730    7.6850 C   0  0  0  0  0  0  0  0  0  0  0  0
    6.1940   36.8660    8.4120 C   0  0  0  0  0  0  0  0  0  0  0  0
   12.4650   38.3900    4.7680 C   0  0  0  0  0  0  0  0  0  0  0  0
   12.7980   37.1910    5.3790 C   0  0  0  0  0  0  0  0  0  0  0  0
   -0.6300   33.3550    8.4760 C   0  0  0  0  0  0  0  0  0  0  0  0
    2.1360   30.3360    7.4910 C   0  0  0  0  0  0  0  0  0  0  0  0
   10.2610   38.3830    5.8300 C   0  0  0  0  0  0  0  0  0  0  0  0
    3.3670   32.9710    8.1430 C   0  0  0  0  0  0  0  0  0  0  0  0
   10.9360   40.1390    4.4070 N   0  0  0  0  0  0  0  0  0  0  0  0
   -0.0540   30.1120    7.6050 N   0  0  0  0  0  0  0  0  0  0  0  0
    3.8660   34.0320    8.8240 N   0  0  0  0  0  0  0  0  0  0  0  0
    2.2520   32.4120    8.6330 N   0  0  0  0  0  0  0  0  0  0  0  0
    8.4290   37.0110    7.5890 N   0  0  0  0  0  0  0  0  0  0  0  0
    3.9100   32.5540    7.1230 O   0  0  0  0  0  0  0  0  0  0  0  0
   -1.5810   34.2180    9.0170 C   0  0  0  0  0  0  0  0  0  0  0  0
   11.2130   38.9770    4.9950 C   0  0  0  0  0  0  0  0  0  0  0  0
    4.9870   34.7400    8.5120 C   0  0  0  0  0  0  0  0  0  0  0  0
    7.3330   36.2640    7.8840 C   0  0  0  0  0  0  0  0  0  0  0  0
   -0.6610   31.9860    8.7340 C   0  0  0  0  0  0  0  0  0  0  0  0
    1.0760   29.5610    7.1600 C   0  0  0  0  0  0  0  0  0  0  0  0
    1.5950   31.3730    8.1210 C   0  0  0  0  0  0  0  0  0  0  0  0
    1.1350   28.2040    6.4140 C   0  0  0  0  0  0  0  0  0  0  0  0
    0.2570   31.1640    8.1880 N   0  0  0  0  0  0  0  0  0  0  0  0
   10.0980   35.3240    7.8340 N   0  0  0  0  0  0  0  0  0  0  0  0
   11.2930   34.7790    7.5750 C   0  0  0  0  0  0  0  0  0  0  0  0
   12.1710   35.3950    6.7830 N   0  0  0  0  0  0  0  0  0  0  0  0
   11.8580   36.5880    6.2170 C   0  0  0  0  0  0  0  0  0  0  0  0
   10.5810   37.1740    6.4450 C   0  0  0  0  0  0  0  0  0  0  0  0
    9.6720   36.5080    7.2970 C   0  0  0  0  0  0  0  0  0  0  0  0
   -1.4880   36.3032    9.6784 H   0  0  0  0  0  0  0  0  0  0  0  0
   -2.4754   36.0736    8.2745 H   0  0  0  0  0  0  0  0  0  0  0  0
   -0.6861   36.1743    8.0675 H   0  0  0  0  0  0  0  0  0  0  0  0
    1.9459   26.1913    6.8753 H   0  0  0  0  0  0  0  0  0  0  0  0
    1.4841   27.0386    8.2691 H   0  0  0  0  0  0  0  0  0  0  0  0
    3.0206   27.5875    7.4135 H   0  0  0  0  0  0  0  0  0  0  0  0
   -0.8049   27.5166    7.2201 H   0  0  0  0  0  0  0  0  0  0  0  0
   -0.3431   26.6693    5.8263 H   0  0  0  0  0  0  0  0  0  0  0  0
   -0.9174   28.4065    5.6109 H   0  0  0  0  0  0  0  0  0  0  0  0
    1.9864   27.3149    4.5505 H   0  0  0  0  0  0  0  0  0  0  0  0
    2.9038   28.6015    5.1096 H   0  0  0  0  0  0  0  0  0  0  0  0
    1.2296   29.0075    4.4099 H   0  0  0  0  0  0  0  0  0  0  0  0
   -3.4648   31.9410   10.7148 H   0  0  0  0  0  0  0  0  0  0  0  0
   -3.3635   34.3586   10.2528 H   0  0  0  0  0  0  0  0  0  0  0  0
   -1.7440   30.4089    9.7043 H   0  0  0  0  0  0  0  0  0  0  0  0
    6.1549   33.0286    7.8283 H   0  0  0  0  0  0  0  0  0  0  0  0
    4.1579   36.6349    9.1647 H   0  0  0  0  0  0  0  0  0  0  0  0
    8.1680   34.3573    7.2737 H   0  0  0  0  0  0  0  0  0  0  0  0
    6.2094   37.9561    8.5792 H   0  0  0  0  0  0  0  0  0  0  0  0
   13.1963   38.8770    4.1012 H   0  0  0  0  0  0  0  0  0  0  0  0
   13.7842   36.7293    5.2031 H   0  0  0  0  0  0  0  0  0  0  0  0
    0.1645   33.7644    7.8296 H   0  0  0  0  0  0  0  0  0  0  0  0
    3.2065   30.1608    7.2911 H   0  0  0  0  0  0  0  0  0  0  0  0
    9.2798   38.8574    5.9997 H   0  0  0  0  0  0  0  0  0  0  0  0
   11.0782   40.0426    3.4016 H   0  0  0  0  0  0  0  0  0  0  0  0
   10.0247   40.5663    4.5722 H   0  0  0  0  0  0  0  0  0  0  0  0
    1.8633   32.8194    9.4835 H   0  0  0  0  0  0  0  0  0  0  0  0
   11.5586   33.8061    8.0216 H   0  0  0  0  0  0  0  0  0  0  0  0
  1 24  1  0  0  0  0
  2 31  1  0  0  0  0
  3 31  1  0  0  0  0
  4 31  1  0  0  0  0
  5  6  1  0  0  0  0
  5  7  2  0  0  0  0
  6 24  2  0  0  0  0
  7 28  1  0  0  0  0
  8 10  2  0  0  0  0
  8 26  1  0  0  0  0
  9 26  1  0  0  0  0
  9 11  2  0  0  0  0
 10 27  1  0  0  0  0
 11 27  1  0  0  0  0
 12 13  2  0  0  0  0
 12 25  1  0  0  0  0
 13 36  1  0  0  0  0
 14 28  2  0  0  0  0
 14 24  1  0  0  0  0
 15 30  2  0  0  0  0
 15 29  1  0  0  0  0
 16 37  1  0  0  0  0
 16 25  2  0  0  0  0
 17 23  2  0  0  0  0
 17 21  1  0  0  0  0
 17 20  1  0  0  0  0
 18 25  1  0  0  0  0
 19 32  1  0  0  0  0
 19 29  2  0  0  0  0
 20 26  2  0  0  0  0
 21 30  1  0  0  0  0
 22 27  2  0  0  0  0
 22 38  1  0  0  0  0
 28 32  1  0  0  0  0
 29 31  1  0  0  0  0
 30 32  1  0  0  0  0
 33 34  1  0  0  0  0
 33 38  2  0  0  0  0
 34 35  2  0  0  0  0
 35 36  1  0  0  0  0
 36 37  2  0  0  0  0
 37 38  1  0  0  0  0
  1 39  1  0  0  0  0
  1 40  1  0  0  0  0
  1 41  1  0  0  0  0
  2 42  1  0  0  0  0
  2 43  1  0  0  0  0
  2 44  1  0  0  0  0
  3 45  1  0  0  0  0
  3 46  1  0  0  0  0
  3 47  1  0  0  0  0
  4 48  1  0  0  0  0
  4 49  1  0  0  0  0
  4 50  1  0  0  0  0
  5 51  1  0  0  0  0
  6 52  1  0  0  0  0
  7 53  1  0  0  0  0
  8 54  1  0  0  0  0
  9 55  1  0  0  0  0
 10 56  1  0  0  0  0
 11 57  1  0  0  0  0
 12 58  1  0  0  0  0
 13 59  1  0  0  0  0
 14 60  1  0  0  0  0
 15 61  1  0  0  0  0
 16 62  1  0  0  0  0
 18 63  1  0  0  0  0
 18 64  1  0  0  0  0
 21 65  1  0  0  0  0
 34 66  1  0  0  0  0
M  END
> <UNIQUE_SMILES>
Cc1cccc(c1)n2nc(cc2NC(=O)N=C3C=CC(C=C3)=Nc4ncnc5ccc(N)cc45)C(C)(C)C

$$$$
