C29H33ClN6O4
APtclcactv01052013003D 0   0.00000     0.00000     1
 
 73 77  0  0  0  0  0  0  0  0999 V2000
    8.0750   -1.5550    8.3270 Cl  0  0  0  0  0  0  0  0  0  0  0  0
    7.3170    4.6510    7.2570 C   0  0  0  0  0  0  0  0  0  0  0  0
    6.0730    4.8240    6.6950 C   0  0  0  0  0  0  0  0  0  0  0  0
    5.9920    1.1650   11.2350 C   0  0  0  0  0  0  0  0  0  0  0  0
    7.7200    3.3840    7.6270 C   0  0  0  0  0  0  0  0  0  0  0  0
    6.2520    1.5790    9.9470 C   0  0  0  0  0  0  0  0  0  0  0  0
    8.3250   -1.4620   17.1090 C   0  0  0  0  0  0  0  0  0  0  0  0
    5.6160    2.4880    6.8580 C   0  0  0  0  0  0  0  0  0  0  0  0
    7.0150   -0.9560   10.7700 C   0  0  0  0  0  0  0  0  0  0  0  0
    7.0010   -1.8240   17.1680 C   0  0  0  0  0  0  0  0  0  0  0  0
    9.5940   -0.0680   14.0500 C   0  0  0  0  0  0  0  0  0  0  0  0
    8.5660   -0.9470   15.8110 C   0  0  0  0  0  0  0  0  0  0  0  0
    7.3830   -0.9980   15.0920 C   0  0  0  0  0  0  0  0  0  0  0  0
    5.2180    3.7600    6.4970 C   0  0  0  0  0  0  0  0  0  0  0  0
    6.3790   -0.1030   11.6520 C   0  0  0  0  0  0  0  0  0  0  0  0
    6.8570    2.3270    7.4250 C   0  0  0  0  0  0  0  0  0  0  0  0
    6.9030    0.7120    9.0860 C   0  0  0  0  0  0  0  0  0  0  0  0
    7.2720   -0.5470    9.4860 C   0  0  0  0  0  0  0  0  0  0  0  0
    7.3340   -0.5620   13.7760 C   0  0  0  0  0  0  0  0  0  0  0  0
    2.8990    3.1250    6.1010 C   0  0  0  0  0  0  0  0  0  0  0  0
   -1.9640    2.0650    4.3190 C   0  0  0  0  0  0  0  0  0  0  0  0
   -0.7930    1.1360    4.5380 C   0  0  0  0  0  0  0  0  0  0  0  0
   -1.9500    3.2040    5.3170 C   0  0  0  0  0  0  0  0  0  0  0  0
    0.5170    1.9020    4.4730 C   0  0  0  0  0  0  0  0  0  0  0  0
   -0.6270    3.9430    5.2800 C   0  0  0  0  0  0  0  0  0  0  0  0
    0.5200    2.9830    5.5380 C   0  0  0  0  0  0  0  0  0  0  0  0
    5.0420   -1.8330   15.6810 C   0  0  0  0  0  0  0  0  0  0  0  0
    4.1150   -0.6950   16.1030 C   0  0  0  0  0  0  0  0  0  0  0  0
    3.2150    1.9740   13.9120 C   0  0  0  0  0  0  0  0  0  0  0  0
    3.3640    1.3260   15.2570 C   0  0  0  0  0  0  0  0  0  0  0  0
    9.7240   -0.4730   15.3180 N   0  0  0  0  0  0  0  0  0  0  0  0
    8.5000   -0.0970   13.2880 N   0  0  0  0  0  0  0  0  0  0  0  0
    6.4460   -1.5330   15.9510 N   0  0  0  0  0  0  0  0  0  0  0  0
    6.1650   -0.5630   12.9540 N   0  0  0  0  0  0  0  0  0  0  0  0
    3.9710    3.9730    5.9170 N   0  0  0  0  0  0  0  0  0  0  0  0
    1.7670    3.7130    5.6040 N   0  0  0  0  0  0  0  0  0  0  0  0
    2.9310    1.9970    6.5960 O   0  0  0  0  0  0  0  0  0  0  0  0
    2.4280    1.1120   13.1130 O   0  0  0  0  0  0  0  0  0  0  0  0
    7.2340    1.0460    7.7850 O   0  0  0  0  0  0  0  0  0  0  0  0
    4.2700    0.2510   15.0550 O   0  0  0  0  0  0  0  0  0  0  0  0
    7.9828    5.5171    7.4090 H   0  0  0  0  0  0  0  0  0  0  0  0
    5.7544    5.8370    6.3969 H   0  0  0  0  0  0  0  0  0  0  0  0
    5.4752    1.8472   11.9308 H   0  0  0  0  0  0  0  0  0  0  0  0
    8.7139    3.2191    8.0760 H   0  0  0  0  0  0  0  0  0  0  0  0
    5.9452    2.5841    9.6120 H   0  0  0  0  0  0  0  0  0  0  0  0
    9.0478   -1.5641   17.9359 H   0  0  0  0  0  0  0  0  0  0  0  0
    4.9564    1.6187    6.6968 H   0  0  0  0  0  0  0  0  0  0  0  0
    7.3184   -1.9664   11.0919 H   0  0  0  0  0  0  0  0  0  0  0  0
    6.4796   -2.2668   18.0332 H   0  0  0  0  0  0  0  0  0  0  0  0
   10.5012    0.3404   13.5738 H   0  0  0  0  0  0  0  0  0  0  0  0
   -2.9337    1.5149    4.3373 H   0  0  0  0  0  0  0  0  0  0  0  0
   -2.0006    2.4392    3.2693 H   0  0  0  0  0  0  0  0  0  0  0  0
   -0.8065    0.2782    3.8258 H   0  0  0  0  0  0  0  0  0  0  0  0
   -0.8910    0.5640    5.4901 H   0  0  0  0  0  0  0  0  0  0  0  0
   -2.1957    2.8520    6.3461 H   0  0  0  0  0  0  0  0  0  0  0  0
   -2.8114    3.8952    5.1641 H   0  0  0  0  0  0  0  0  0  0  0  0
    0.7170    2.3112    3.4553 H   0  0  0  0  0  0  0  0  0  0  0  0
    1.4035    1.2302    4.5506 H   0  0  0  0  0  0  0  0  0  0  0  0
   -0.6132    4.8065    5.9852 H   0  0  0  0  0  0  0  0  0  0  0  0
   -0.4917    4.5061    4.3272 H   0  0  0  0  0  0  0  0  0  0  0  0
    0.3954    2.4763    6.5234 H   0  0  0  0  0  0  0  0  0  0  0  0
    4.7380   -2.7962   16.1532 H   0  0  0  0  0  0  0  0  0  0  0  0
    4.8866   -2.1031   14.6104 H   0  0  0  0  0  0  0  0  0  0  0  0
    4.3083   -0.2926   17.1248 H   0  0  0  0  0  0  0  0  0  0  0  0
    3.0614   -1.0024   16.2997 H   0  0  0  0  0  0  0  0  0  0  0  0
    2.8049    3.0092   13.9703 H   0  0  0  0  0  0  0  0  0  0  0  0
    4.1927    2.2318   13.4420 H   0  0  0  0  0  0  0  0  0  0  0  0
    2.3965    1.0185   15.7181 H   0  0  0  0  0  0  0  0  0  0  0  0
    3.6740    2.0302   16.0640 H   0  0  0  0  0  0  0  0  0  0  0  0
    5.7400   -1.4901   12.9394 H   0  0  0  0  0  0  0  0  0  0  0  0
    3.8357    4.7934    5.3262 H   0  0  0  0  0  0  0  0  0  0  0  0
    1.8513    4.6792    5.2881 H   0  0  0  0  0  0  0  0  0  0  0  0
    2.3337    1.5223   12.2614 H   0  0  0  0  0  0  0  0  0  0  0  0
  1 18  1  0  0  0  0
  2  3  1  0  0  0  0
  2  5  2  0  0  0  0
  3 14  2  0  0  0  0
  4  6  1  0  0  0  0
  4 15  2  0  0  0  0
  5 16  1  0  0  0  0
  6 17  2  0  0  0  0
  7 10  2  0  0  0  0
  7 12  1  0  0  0  0
  8 16  2  0  0  0  0
  8 14  1  0  0  0  0
  9 18  2  0  0  0  0
  9 15  1  0  0  0  0
 10 33  1  0  0  0  0
 11 32  1  0  0  0  0
 11 31  2  0  0  0  0
 12 31  1  0  0  0  0
 12 13  2  0  0  0  0
 13 33  1  0  0  0  0
 13 19  1  0  0  0  0
 14 35  1  0  0  0  0
 15 34  1  0  0  0  0
 16 39  1  0  0  0  0
 17 18  1  0  0  0  0
 17 39  1  0  0  0  0
 19 32  2  0  0  0  0
 19 34  1  0  0  0  0
 20 37  2  0  0  0  0
 20 36  1  0  0  0  0
 20 35  1  0  0  0  0
 21 22  1  0  0  0  0
 21 23  1  0  0  0  0
 22 24  1  0  0  0  0
 23 25  1  0  0  0  0
 24 26  1  0  0  0  0
 25 26  1  0  0  0  0
 26 36  1  0  0  0  0
 27 33  1  0  0  0  0
 27 28  1  0  0  0  0
 28 40  1  0  0  0  0
 29 38  1  0  0  0  0
 29 30  1  0  0  0  0
 30 40  1  0  0  0  0
  2 41  1  0  0  0  0
  3 42  1  0  0  0  0
  4 43  1  0  0  0  0
  5 44  1  0  0  0  0
  6 45  1  0  0  0  0
  7 46  1  0  0  0  0
  8 47  1  0  0  0  0
  9 48  1  0  0  0  0
 10 49  1  0  0  0  0
 11 50  1  0  0  0  0
 21 51  1  0  0  0  0
 21 52  1  0  0  0  0
 22 53  1  0  0  0  0
 22 54  1  0  0  0  0
 23 55  1  0  0  0  0
 23 56  1  0  0  0  0
 24 57  1  0  0  0  0
 24 58  1  0  0  0  0
 25 59  1  0  0  0  0
 25 60  1  0  0  0  0
 26 61  1  0  0  0  0
 27 62  1  0  0  0  0
 27 63  1  0  0  0  0
 28 64  1  0  0  0  0
 28 65  1  0  0  0  0
 29 66  1  0  0  0  0
 29 67  1  0  0  0  0
 30 68  1  0  0  0  0
 30 69  1  0  0  0  0
 34 70  1  0  0  0  0
 35 71  1  0  0  0  0
 36 72  1  0  0  0  0
 38 73  1  0  0  0  0
M  END
> <UNIQUE_SMILES>
OCCOCCn1ccc2ncnc(Nc3ccc(Oc4cccc(NC(=O)NC5CCCCC5)c4)c(Cl)c3)c12

$$$$
