C21H25F4N7O2
APtclcactv01052013213D 0   0.00000     0.00000     1
 
 59 62  0  0  1  0  0  0  0  0999 V2000
  -50.0070   -0.1520  -16.6200 C   0  0  0  0  0  0  0  0  0  0  0  0
  -50.1210   -0.8110  -17.9990 C   0  0  2  0  0  0  0  0  0  0  0  0
  -51.1220   -0.1330  -18.9190 C   0  0  0  0  0  0  0  0  0  0  0  0
  -51.9480    0.8060  -18.5630 N   0  0  0  0  0  0  0  0  0  0  0  0
  -52.7010    1.1850  -19.6160 C   0  0  0  0  0  0  0  0  0  0  0  0
  -53.6990    2.1450  -19.7830 C   0  0  0  0  0  0  0  0  0  0  0  0
  -54.2950    2.2700  -20.9560 N   0  0  0  0  0  0  0  0  0  0  0  0
  -53.9630    1.5540  -22.0310 C   0  0  0  0  0  0  0  0  0  0  0  0
  -52.9340    0.6070  -21.9630 C   0  0  0  0  0  0  0  0  0  0  0  0
  -52.3000    0.3960  -20.7280 C   0  0  0  0  0  0  0  0  0  0  0  0
  -51.3020   -0.4340  -20.2480 N   0  0  0  0  0  0  0  0  0  0  0  0
  -50.5780   -1.4870  -20.9850 C   0  0  1  0  0  0  0  0  0  0  0  0
  -51.4850   -2.5990  -21.5440 C   0  0  0  0  0  0  0  0  0  0  0  0
  -49.5290   -0.9330  -21.9370 C   0  0  0  0  0  0  0  0  0  0  0  0
  -54.6470    1.8740  -23.2090 N   0  0  0  0  0  0  0  0  0  0  0  0
  -54.8220    1.1100  -24.3530 C   0  0  0  0  0  0  0  0  0  0  0  0
  -56.0020    1.2570  -25.1000 C   0  0  0  0  0  0  0  0  0  0  0  0
  -56.1520    0.4760  -26.2450 C   0  0  0  0  0  0  0  0  0  0  0  0
  -55.1840   -0.3760  -26.5810 N   0  0  0  0  0  0  0  0  0  0  0  0
  -54.0720   -0.5150  -25.8420 C   0  0  0  0  0  0  0  0  0  0  0  0
  -53.8870    0.2600  -24.7720 N   0  0  0  0  0  0  0  0  0  0  0  0
  -53.0250   -1.3500  -26.2420 N   0  0  0  0  0  0  0  0  0  0  0  0
  -52.0410   -1.8280  -25.2400 C   0  0  0  0  0  0  0  0  0  0  0  0
  -50.6300   -1.8160  -25.8790 C   0  0  0  0  0  0  0  0  0  0  0  0
  -50.6230   -2.6120  -27.2070 C   0  0  1  0  0  0  0  0  0  0  0  0
  -51.7110   -2.1110  -28.1830 C   0  0  1  0  0  0  0  0  0  0  0  0
  -53.0940   -2.0810  -27.5270 C   0  0  0  0  0  0  0  0  0  0  0  0
  -49.3540   -2.4510  -27.8440 O   0  0  0  0  0  0  0  0  0  0  0  0
  -48.5140   -3.6060  -27.7360 C   0  0  0  0  0  0  0  0  0  0  0  0
  -50.5620   -2.1560  -17.8340 O   0  0  0  0  0  0  0  0  0  0  0  0
  -48.7110   -0.0380  -21.2590 F   0  0  0  0  0  0  0  0  0  0  0  0
  -48.7580   -1.9750  -22.4320 F   0  0  0  0  0  0  0  0  0  0  0  0
  -50.1300   -0.2570  -22.9890 F   0  0  0  0  0  0  0  0  0  0  0  0
  -51.4170   -0.7950  -28.5290 F   0  0  0  0  0  0  0  0  0  0  0  0
  -49.3549   -0.7308  -15.9250 H   0  0  0  0  0  0  0  0  0  0  0  0
  -50.9550   -0.2199  -16.0369 H   0  0  0  0  0  0  0  0  0  0  0  0
  -49.6619    0.9004  -16.7491 H   0  0  0  0  0  0  0  0  0  0  0  0
  -49.1099   -0.7346  -18.4627 H   0  0  0  0  0  0  0  0  0  0  0  0
  -54.0232    2.8184  -18.9718 H   0  0  0  0  0  0  0  0  0  0  0  0
  -52.6304    0.0413  -22.8599 H   0  0  0  0  0  0  0  0  0  0  0  0
  -49.9738   -2.0383  -20.2272 H   0  0  0  0  0  0  0  0  0  0  0  0
  -52.2928   -2.1634  -22.1772 H   0  0  0  0  0  0  0  0  0  0  0  0
  -52.1030   -3.0455  -20.7304 H   0  0  0  0  0  0  0  0  0  0  0  0
  -50.9378   -3.3949  -22.1011 H   0  0  0  0  0  0  0  0  0  0  0  0
  -54.2374    2.7513  -23.5298 H   0  0  0  0  0  0  0  0  0  0  0  0
  -56.7896    1.9666  -24.7956 H   0  0  0  0  0  0  0  0  0  0  0  0
  -57.0444    0.5327  -26.8908 H   0  0  0  0  0  0  0  0  0  0  0  0
  -52.3102   -2.8258  -24.8215 H   0  0  0  0  0  0  0  0  0  0  0  0
  -52.0831   -1.2451  -24.2904 H   0  0  0  0  0  0  0  0  0  0  0  0
  -49.8527   -2.1871  -25.1709 H   0  0  0  0  0  0  0  0  0  0  0  0
  -50.2483   -0.7776  -26.0178 H   0  0  0  0  0  0  0  0  0  0  0  0
  -50.8245   -3.6805  -26.9601 H   0  0  0  0  0  0  0  0  0  0  0  0
  -51.7239   -2.8018  -29.0581 H   0  0  0  0  0  0  0  0  0  0  0  0
  -53.8711   -1.6604  -28.2070 H   0  0  0  0  0  0  0  0  0  0  0  0
  -53.5220   -3.1033  -27.4049 H   0  0  0  0  0  0  0  0  0  0  0  0
  -49.0370   -4.5129  -28.1195 H   0  0  0  0  0  0  0  0  0  0  0  0
  -48.3863   -3.9040  -26.6692 H   0  0  0  0  0  0  0  0  0  0  0  0
  -47.5238   -3.4804  -28.2330 H   0  0  0  0  0  0  0  0  0  0  0  0
  -50.6327   -2.5645  -18.6888 H   0  0  0  0  0  0  0  0  0  0  0  0
  1  2  1  0  0  0  0
  2 30  1  0  0  0  0
  2  3  1  0  0  0  0
  3  4  2  0  0  0  0
  3 11  1  0  0  0  0
  4  5  1  0  0  0  0
  5  6  1  0  0  0  0
  5 10  2  0  0  0  0
  6  7  2  0  0  0  0
  7  8  1  0  0  0  0
  8 15  1  0  0  0  0
  8  9  2  0  0  0  0
  9 10  1  0  0  0  0
 10 11  1  0  0  0  0
 11 12  1  0  0  0  0
 12 14  1  0  0  0  0
 12 13  1  0  0  0  0
 14 33  1  0  0  0  0
 14 32  1  0  0  0  0
 14 31  1  0  0  0  0
 15 16  1  0  0  0  0
 16 21  2  0  0  0  0
 16 17  1  0  0  0  0
 17 18  2  0  0  0  0
 18 19  1  0  0  0  0
 19 20  2  0  0  0  0
 20 21  1  0  0  0  0
 20 22  1  0  0  0  0
 22 27  1  0  0  0  0
 22 23  1  0  0  0  0
 23 24  1  0  0  0  0
 24 25  1  0  0  0  0
 25 28  1  0  0  0  0
 25 26  1  0  0  0  0
 26 34  1  0  0  0  0
 26 27  1  0  0  0  0
 28 29  1  0  0  0  0
  1 35  1  0  0  0  0
  1 36  1  0  0  0  0
  1 37  1  0  0  0  0
  2 38  1  0  0  0  0
  6 39  1  0  0  0  0
  9 40  1  0  0  0  0
 12 41  1  0  0  0  0
 13 42  1  0  0  0  0
 13 43  1  0  0  0  0
 13 44  1  0  0  0  0
 15 45  1  0  0  0  0
 17 46  1  0  0  0  0
 18 47  1  0  0  0  0
 23 48  1  0  0  0  0
 23 49  1  0  0  0  0
 24 50  1  0  0  0  0
 24 51  1  0  0  0  0
 25 52  1  0  0  0  0
 26 53  1  0  0  0  0
 27 54  1  0  0  0  0
 27 55  1  0  0  0  0
 29 56  1  0  0  0  0
 29 57  1  0  0  0  0
 29 58  1  0  0  0  0
 30 59  1  0  0  0  0
M  END
> <UNIQUE_SMILES>
COC1CCN(CC1F)c2nccc(Nc3cc4n(C(C)C(F)(F)F)c(nc4cn3)C(C)O)n2

$$$$
