C30H28FN7O3
APtclcactv01052013503D 0   0.00000     0.00000     1
 
 69 73  0  0  0  0  0  0  0  0999 V2000
    6.3500   -5.4150   -2.9780 C   0  0  0  0  0  0  0  0  0  0  0  0
    5.9830   -6.2740   -4.0060 C   0  0  0  0  0  0  0  0  0  0  0  0
    6.1800   -7.6430   -3.8770 C   0  0  0  0  0  0  0  0  0  0  0  0
    6.7460   -8.1580   -2.7140 C   0  0  0  0  0  0  0  0  0  0  0  0
    7.1160   -7.2950   -1.6870 C   0  0  0  0  0  0  0  0  0  0  0  0
    6.9230   -5.9260   -1.8190 C   0  0  0  0  0  0  0  0  0  0  0  0
    7.4350  -10.0070   -1.4910 C   0  0  0  0  0  0  0  0  0  0  0  0
    6.9150   -9.4820   -2.5880 N   0  0  0  0  0  0  0  0  0  0  0  0
    7.6650   -7.8210   -0.5230 C   0  0  0  0  0  0  0  0  0  0  0  0
    7.8260   -9.1970   -0.4280 C   0  0  0  0  0  0  0  0  0  0  0  0
    9.0290    3.9100    3.9990 C   0  0  0  0  0  0  0  0  0  0  0  0
    8.6250    4.4270    5.1450 N   0  0  0  0  0  0  0  0  0  0  0  0
    8.4690    3.6670    6.2370 C   0  0  0  0  0  0  0  0  0  0  0  0
    8.7330    2.3040    6.1850 C   0  0  0  0  0  0  0  0  0  0  0  0
    9.1630    1.7370    4.9940 C   0  0  0  0  0  0  0  0  0  0  0  0
    9.3110    2.5520    3.8820 C   0  0  0  0  0  0  0  0  0  0  0  0
    8.0250   -0.6210    1.7880 C   0  0  0  0  0  0  0  0  0  0  0  0
    8.2850    0.1480    2.9190 C   0  0  0  0  0  0  0  0  0  0  0  0
    9.2880   -0.2320    3.8060 C   0  0  0  0  0  0  0  0  0  0  0  0
   10.0410   -1.3740    3.5510 C   0  0  0  0  0  0  0  0  0  0  0  0
    9.7770   -2.1440    2.4250 C   0  0  0  0  0  0  0  0  0  0  0  0
    8.7630   -1.7780    1.5470 C   0  0  0  0  0  0  0  0  0  0  0  0
    5.1540   -2.3560   -3.6330 C   0  0  0  0  0  0  0  0  0  0  0  0
    5.7920   -2.0510   -2.5050 C   0  0  0  0  0  0  0  0  0  0  0  0
    6.3780   -3.1940   -2.1670 C   0  0  0  0  0  0  0  0  0  0  0  0
    6.0640   -4.1190   -3.0720 N   0  0  0  0  0  0  0  0  0  0  0  0
    5.3530   -3.6320   -3.9510 N   0  0  0  0  0  0  0  0  0  0  0  0
    7.2800   -3.3410   -1.2000 N   0  0  0  0  0  0  0  0  0  0  0  0
    7.4990   -2.3700   -0.3170 C   0  0  0  0  0  0  0  0  0  0  0  0
    8.4430   -2.6340    0.5820 N   0  0  0  0  0  0  0  0  0  0  0  0
    6.8730   -1.3130   -0.3280 O   0  0  0  0  0  0  0  0  0  0  0  0
    9.5010    0.4200    4.9820 O   0  0  0  0  0  0  0  0  0  0  0  0
    8.0320    4.2860    7.5680 C   0  0  0  0  0  0  0  0  0  0  0  0
    7.6630    3.5750    8.5010 O   0  0  0  0  0  0  0  0  0  0  0  0
    8.0770    5.6140    7.6240 N   0  0  0  0  0  0  0  0  0  0  0  0
    7.6630    6.2340    8.8930 C   0  0  0  0  0  0  0  0  0  0  0  0
    4.3250   -1.3780   -4.4670 C   0  0  0  0  0  0  0  0  0  0  0  0
    5.0830   -1.0700   -5.7620 C   0  0  0  0  0  0  0  0  0  0  0  0
    4.1130   -0.0950   -3.6590 C   0  0  0  0  0  0  0  0  0  0  0  0
    2.9740   -2.0260   -4.7850 C   0  0  0  0  0  0  0  0  0  0  0  0
   10.5100   -3.2480    2.1800 F   0  0  0  0  0  0  0  0  0  0  0  0
    7.7900   -4.1990   -1.1530 H   0  0  0  0  0  0  0  0  0  0  0  0
    8.9350   -3.5040    0.5450 H   0  0  0  0  0  0  0  0  0  0  0  0
    8.3730    6.1880    6.8600 H   0  0  0  0  0  0  0  0  0  0  0  0
    5.5337   -5.8677   -4.9278 H   0  0  0  0  0  0  0  0  0  0  0  0
    5.8874   -8.3202   -4.6970 H   0  0  0  0  0  0  0  0  0  0  0  0
    7.2243   -5.2457   -1.0047 H   0  0  0  0  0  0  0  0  0  0  0  0
    7.5411  -11.1045   -1.4630 H   0  0  0  0  0  0  0  0  0  0  0  0
    7.9664   -7.1607    0.3075 H   0  0  0  0  0  0  0  0  0  0  0  0
    8.2602   -9.6422    0.4829 H   0  0  0  0  0  0  0  0  0  0  0  0
    9.1298    4.6051    3.1485 H   0  0  0  0  0  0  0  0  0  0  0  0
    8.6022    1.6766    7.0827 H   0  0  0  0  0  0  0  0  0  0  0  0
    9.6472    2.1275    2.9211 H   0  0  0  0  0  0  0  0  0  0  0  0
    7.2344   -0.3136    1.0830 H   0  0  0  0  0  0  0  0  0  0  0  0
    7.6954    1.0598    3.1126 H   0  0  0  0  0  0  0  0  0  0  0  0
   10.8482   -1.6693    4.2423 H   0  0  0  0  0  0  0  0  0  0  0  0
    5.8268   -1.0832   -1.9770 H   0  0  0  0  0  0  0  0  0  0  0  0
    8.2578    5.8033    9.7320 H   0  0  0  0  0  0  0  0  0  0  0  0
    6.6409    5.8819    9.1660 H   0  0  0  0  0  0  0  0  0  0  0  0
    7.7007    7.3474    8.9399 H   0  0  0  0  0  0  0  0  0  0  0  0
    5.3515   -1.9921   -6.3284 H   0  0  0  0  0  0  0  0  0  0  0  0
    6.1171   -0.6986   -5.5726 H   0  0  0  0  0  0  0  0  0  0  0  0
    4.4787   -0.3570   -6.3700 H   0  0  0  0  0  0  0  0  0  0  0  0
    5.0731    0.3514   -3.3095 H   0  0  0  0  0  0  0  0  0  0  0  0
    3.6603   -0.2916   -2.6592 H   0  0  0  0  0  0  0  0  0  0  0  0
    3.5087    0.6180   -4.2670 H   0  0  0  0  0  0  0  0  0  0  0  0
    2.4377   -2.3660   -3.8685 H   0  0  0  0  0  0  0  0  0  0  0  0
    3.0833   -3.0204   -5.2774 H   0  0  0  0  0  0  0  0  0  0  0  0
    2.3697   -1.3130   -5.3930 H   0  0  0  0  0  0  0  0  0  0  0  0
  1 26  1  0  0  0  0
  1  2  2  0  0  0  0
  1  6  1  0  0  0  0
  2  3  1  0  0  0  0
  3  4  2  0  0  0  0
  4  8  1  0  0  0  0
  4  5  1  0  0  0  0
  5  6  2  0  0  0  0
  5  9  1  0  0  0  0
  7  8  2  0  0  0  0
  7 10  1  0  0  0  0
  9 10  2  0  0  0  0
 11 12  2  0  0  0  0
 11 16  1  0  0  0  0
 12 13  1  0  0  0  0
 13 14  2  0  0  0  0
 13 33  1  0  0  0  0
 14 15  1  0  0  0  0
 15 32  1  0  0  0  0
 15 16  2  0  0  0  0
 17 18  1  0  0  0  0
 17 22  2  0  0  0  0
 18 19  2  0  0  0  0
 19 32  1  0  0  0  0
 19 20  1  0  0  0  0
 20 21  2  0  0  0  0
 21 41  1  0  0  0  0
 21 22  1  0  0  0  0
 22 30  1  0  0  0  0
 23 27  2  0  0  0  0
 23 24  1  0  0  0  0
 23 37  1  0  0  0  0
 24 25  2  0  0  0  0
 25 28  1  0  0  0  0
 25 26  1  0  0  0  0
 26 27  1  0  0  0  0
 28 42  1  0  0  0  0
 28 29  1  0  0  0  0
 29 31  2  0  0  0  0
 29 30  1  0  0  0  0
 30 43  1  0  0  0  0
 33 34  2  0  0  0  0
 33 35  1  0  0  0  0
 35 44  1  0  0  0  0
 35 36  1  0  0  0  0
 37 39  1  0  0  0  0
 37 40  1  0  0  0  0
 37 38  1  0  0  0  0
  2 45  1  0  0  0  0
  3 46  1  0  0  0  0
  6 47  1  0  0  0  0
  7 48  1  0  0  0  0
  9 49  1  0  0  0  0
 10 50  1  0  0  0  0
 11 51  1  0  0  0  0
 14 52  1  0  0  0  0
 16 53  1  0  0  0  0
 17 54  1  0  0  0  0
 18 55  1  0  0  0  0
 20 56  1  0  0  0  0
 24 57  1  0  0  0  0
 36 58  1  0  0  0  0
 36 59  1  0  0  0  0
 36 60  1  0  0  0  0
 38 61  1  0  0  0  0
 38 62  1  0  0  0  0
 38 63  1  0  0  0  0
 39 64  1  0  0  0  0
 39 65  1  0  0  0  0
 39 66  1  0  0  0  0
 40 67  1  0  0  0  0
 40 68  1  0  0  0  0
 40 69  1  0  0  0  0
M  END
> <UNIQUE_SMILES>
CNC(=O)c1cc(Oc2ccc(NC(=O)Nc3cc(nn3c4ccc5ncccc5c4)C(C)(C)C)c(F)c2)ccn1

> <KDEEP_PKD>
8.062739372253418

> <KDEEP_DG>
-10.88

$$$$
