C21H19FN6O2
APtclcactv01052013523D 0   0.00000     0.00000     1
 
 49 52  0  0  1  0  0  0  0  0999 V2000
    8.4340   -6.9500   -2.0840 C   0  0  0  0  0  0  0  0  0  0  0  0
    8.9930   -7.6050   -0.9920 C   0  0  0  0  0  0  0  0  0  0  0  0
    8.8420   -8.9290   -0.8380 N   0  0  0  0  0  0  0  0  0  0  0  0
    8.1740   -9.6520   -1.7180 C   0  0  0  0  0  0  0  0  0  0  0  0
    7.5910   -9.0600   -2.8330 C   0  0  0  0  0  0  0  0  0  0  0  0
    7.7200   -7.6900   -3.0190 C   0  0  0  0  0  0  0  0  0  0  0  0
    8.6120   -5.6110   -2.2290 O   0  0  0  0  0  0  0  0  0  0  0  0
    8.5640   -5.2200   -3.6050 C   0  0  2  0  0  0  0  0  0  0  0  0
    9.5350   -4.0660   -3.8590 C   0  0  0  0  0  0  0  0  0  0  0  0
    7.1380   -4.7690   -3.9380 C   0  0  0  0  0  0  0  0  0  0  0  0
    6.5200   -5.2010   -5.1060 C   0  0  0  0  0  0  0  0  0  0  0  0
    5.2200   -4.7960   -5.3980 C   0  0  0  0  0  0  0  0  0  0  0  0
    4.5390   -3.9610   -4.5190 C   0  0  0  0  0  0  0  0  0  0  0  0
    5.1610   -3.5210   -3.3540 C   0  0  0  0  0  0  0  0  0  0  0  0
    6.4600   -3.9240   -3.0630 C   0  0  0  0  0  0  0  0  0  0  0  0
    9.6830   -6.9130   -0.0890 N   0  0  0  0  0  0  0  0  0  0  0  0
    6.9160   -9.8560   -3.7540 C   0  0  0  0  0  0  0  0  0  0  0  0
    6.7890  -11.2260   -3.9160 C   0  0  0  0  0  0  0  0  0  0  0  0
    5.9950  -11.4220   -4.9650 N   0  0  0  0  0  0  0  0  0  0  0  0
    5.6310  -10.3560   -5.4610 N   0  0  0  0  0  0  0  0  0  0  0  0
    6.1480   -9.3310   -4.7840 C   0  0  0  0  0  0  0  0  0  0  0  0
    7.4200  -12.1980   -3.0720 C   0  0  0  0  0  0  0  0  0  0  0  0
    7.9210  -12.9780   -2.4040 N   0  0  0  0  0  0  0  0  0  0  0  0
    5.5940  -12.7510   -5.4650 C   0  0  0  0  0  0  0  0  0  0  0  0
    6.9430   -7.3860   -6.0350 N   0  0  0  0  0  0  0  0  0  0  0  0
    7.2790   -6.0990   -6.0820 C   0  0  0  0  0  0  0  0  0  0  0  0
    5.9170   -7.8520   -5.0950 C   0  0  0  0  0  0  0  0  0  0  0  0
    7.6600   -8.2660   -6.9710 C   0  0  0  0  0  0  0  0  0  0  0  0
    8.1350   -5.6320   -6.8370 O   0  0  0  0  0  0  0  0  0  0  0  0
    4.5100   -2.7040   -2.5040 F   0  0  0  0  0  0  0  0  0  0  0  0
    9.8030   -5.9270   -0.1960 H   0  0  0  0  0  0  0  0  0  0  0  0
   10.0850   -7.3850    0.6980 H   0  0  0  0  0  0  0  0  0  0  0  0
    8.1040  -10.7356   -1.5244 H   0  0  0  0  0  0  0  0  0  0  0  0
    7.2633   -7.1981   -3.8942 H   0  0  0  0  0  0  0  0  0  0  0  0
    8.8557   -6.0830   -4.2480 H   0  0  0  0  0  0  0  0  0  0  0  0
   10.5717   -4.3138   -3.5320 H   0  0  0  0  0  0  0  0  0  0  0  0
    9.3485   -3.2059   -3.1744 H   0  0  0  0  0  0  0  0  0  0  0  0
    9.4976   -3.7614   -4.9309 H   0  0  0  0  0  0  0  0  0  0  0  0
    4.7297   -5.1366   -6.3255 H   0  0  0  0  0  0  0  0  0  0  0  0
    3.5060   -3.6478   -4.7457 H   0  0  0  0  0  0  0  0  0  0  0  0
    6.9517   -3.5740   -2.1398 H   0  0  0  0  0  0  0  0  0  0  0  0
    5.1408  -13.2991   -4.6063 H   0  0  0  0  0  0  0  0  0  0  0  0
    6.5313  -13.3245   -5.6541 H   0  0  0  0  0  0  0  0  0  0  0  0
    4.9284  -12.9153   -6.3443 H   0  0  0  0  0  0  0  0  0  0  0  0
    5.8758   -7.2281   -4.1718 H   0  0  0  0  0  0  0  0  0  0  0  0
    4.8841   -7.6550   -5.4659 H   0  0  0  0  0  0  0  0  0  0  0  0
    8.7606   -8.1545   -6.8311 H   0  0  0  0  0  0  0  0  0  0  0  0
    7.5526   -7.8823   -8.0124 H   0  0  0  0  0  0  0  0  0  0  0  0
    7.3785   -9.3442   -6.9316 H   0  0  0  0  0  0  0  0  0  0  0  0
  1  7  1  0  0  0  0
  1  6  2  0  0  0  0
  1  2  1  0  0  0  0
  2 16  1  0  0  0  0
  2  3  2  0  0  0  0
  3  4  1  0  0  0  0
  4  5  2  0  0  0  0
  5  6  1  0  0  0  0
  5 17  1  0  0  0  0
  7  8  1  0  0  0  0
  8  9  1  0  0  0  0
  8 10  1  0  0  0  0
 10 11  1  0  0  0  0
 10 15  2  0  0  0  0
 11 12  2  0  0  0  0
 11 26  1  0  0  0  0
 12 13  1  0  0  0  0
 13 14  2  0  0  0  0
 14 30  1  0  0  0  0
 14 15  1  0  0  0  0
 16 31  1  0  0  0  0
 16 32  1  0  0  0  0
 17 18  2  0  0  0  0
 17 21  1  0  0  0  0
 18 19  1  0  0  0  0
 18 22  1  0  0  0  0
 19 20  1  0  0  0  0
 19 24  1  0  0  0  0
 20 21  2  0  0  0  0
 21 27  1  0  0  0  0
 22 23  3  0  0  0  0
 25 26  1  0  0  0  0
 25 27  1  0  0  0  0
 25 28  1  0  0  0  0
 26 29  2  0  0  0  0
  4 33  1  0  0  0  0
  6 34  1  0  0  0  0
  8 35  1  0  0  0  0
  9 36  1  0  0  0  0
  9 37  1  0  0  0  0
  9 38  1  0  0  0  0
 12 39  1  0  0  0  0
 13 40  1  0  0  0  0
 15 41  1  0  0  0  0
 24 42  1  0  0  0  0
 24 43  1  0  0  0  0
 24 44  1  0  0  0  0
 27 45  1  0  0  0  0
 27 46  1  0  0  0  0
 28 47  1  0  0  0  0
 28 48  1  0  0  0  0
 28 49  1  0  0  0  0
M  END
> <UNIQUE_SMILES>
CC1Oc2cc(cnc2N)c3c(CN(C)C(=O)c4ccc(F)cc14)nn(C)c3C#N

> <KDEEP_PKD>
7.520503520965576

> <KDEEP_DG>
-10.15

$$$$
