C21H25F4N7O2
APtclcactv01052014073D 0   0.00000     0.00000     1
 
 59 62  0  0  1  0  0  0  0  0999 V2000
    7.6250    6.4090   10.7980 C   0  0  0  0  0  0  0  0  0  0  0  0
    6.6320    6.2010    9.6550 C   0  0  2  0  0  0  0  0  0  0  0  0
    7.4010    5.8950    8.3670 C   0  0  0  0  0  0  0  0  0  0  0  0
    8.2520    6.7290    7.7740 N   0  0  0  0  0  0  0  0  0  0  0  0
    8.7030    6.1130    6.6830 C   0  0  0  0  0  0  0  0  0  0  0  0
    9.5950    6.5030    5.6900 C   0  0  0  0  0  0  0  0  0  0  0  0
    9.8610    5.6970    4.6820 N   0  0  0  0  0  0  0  0  0  0  0  0
    9.3070    4.4790    4.5720 C   0  0  0  0  0  0  0  0  0  0  0  0
    8.4120    4.0230    5.5340 C   0  0  0  0  0  0  0  0  0  0  0  0
    8.1050    4.8600    6.6030 C   0  0  0  0  0  0  0  0  0  0  0  0
    7.3100    4.7670    7.6650 N   0  0  0  0  0  0  0  0  0  0  0  0
    6.4340    3.6370    8.0090 C   0  0  1  0  0  0  0  0  0  0  0  0
    5.8770    3.0130    6.7260 C   0  0  0  0  0  0  0  0  0  0  0  0
    7.2110    2.6140    8.8400 C   0  0  0  0  0  0  0  0  0  0  0  0
    9.5990    3.7750    3.4820 N   0  0  0  0  0  0  0  0  0  0  0  0
    9.1320    2.5540    3.2380 C   0  0  0  0  0  0  0  0  0  0  0  0
    9.4720    1.9560    2.0320 C   0  0  0  0  0  0  0  0  0  0  0  0
    8.9620    0.7010    1.7310 C   0  0  0  0  0  0  0  0  0  0  0  0
    8.1710    0.1040    2.6040 N   0  0  0  0  0  0  0  0  0  0  0  0
    7.8560    0.6870    3.7690 C   0  0  0  0  0  0  0  0  0  0  0  0
    8.3250    1.8990    4.0870 N   0  0  0  0  0  0  0  0  0  0  0  0
    7.0340   -0.0220    4.6540 N   0  0  0  0  0  0  0  0  0  0  0  0
    6.6760    0.5370    5.9780 C   0  0  0  0  0  0  0  0  0  0  0  0
    6.9740   -0.5050    7.0560 C   0  0  0  0  0  0  0  0  0  0  0  0
    6.2840   -1.8390    6.7410 C   0  0  1  0  0  0  0  0  0  0  0  0
    6.8310   -2.3610    5.4140 C   0  0  1  0  0  0  0  0  0  0  0  0
    6.5400   -1.3650    4.2890 C   0  0  0  0  0  0  0  0  0  0  0  0
    6.5700   -2.7820    7.7810 O   0  0  0  0  0  0  0  0  0  0  0  0
    5.9910   -2.3380    9.0090 C   0  0  0  0  0  0  0  0  0  0  0  0
    5.8360    7.3720    9.4570 O   0  0  0  0  0  0  0  0  0  0  0  0
    7.6600    3.1910    9.9490 F   0  0  0  0  0  0  0  0  0  0  0  0
    6.4030    1.6080    9.1640 F   0  0  0  0  0  0  0  0  0  0  0  0
    8.2370    2.1450    8.1360 F   0  0  0  0  0  0  0  0  0  0  0  0
    8.1910   -2.5940    5.5090 F   0  0  0  0  0  0  0  0  0  0  0  0
    6.4310    8.1540    9.2700 H   0  0  0  0  0  0  0  0  0  0  0  0
   10.2010    4.1930    2.8000 H   0  0  0  0  0  0  0  0  0  0  0  0
    7.1136    6.7245   11.7372 H   0  0  0  0  0  0  0  0  0  0  0  0
    8.2553    7.3147   10.6379 H   0  0  0  0  0  0  0  0  0  0  0  0
    8.2458    5.4958   10.9524 H   0  0  0  0  0  0  0  0  0  0  0  0
    5.9610    5.3497    9.9164 H   0  0  0  0  0  0  0  0  0  0  0  0
   10.1065    7.4802    5.7023 H   0  0  0  0  0  0  0  0  0  0  0  0
    7.9567    3.0218    5.4511 H   0  0  0  0  0  0  0  0  0  0  0  0
    5.5746    3.9944    8.6229 H   0  0  0  0  0  0  0  0  0  0  0  0
    6.6845    2.7190    6.0156 H   0  0  0  0  0  0  0  0  0  0  0  0
    5.3629    3.7635    6.0813 H   0  0  0  0  0  0  0  0  0  0  0  0
    5.2128    2.1562    6.9868 H   0  0  0  0  0  0  0  0  0  0  0  0
   10.1394    2.4719    1.3214 H   0  0  0  0  0  0  0  0  0  0  0  0
    9.1874    0.1731    0.7891 H   0  0  0  0  0  0  0  0  0  0  0  0
    5.6214    0.8969    6.0156 H   0  0  0  0  0  0  0  0  0  0  0  0
    7.1807    1.5109    6.1780 H   0  0  0  0  0  0  0  0  0  0  0  0
    6.7044   -0.1332    8.0720 H   0  0  0  0  0  0  0  0  0  0  0  0
    8.0708   -0.6360    7.2083 H   0  0  0  0  0  0  0  0  0  0  0  0
    5.1803   -1.6958    6.6727 H   0  0  0  0  0  0  0  0  0  0  0  0
    6.3224   -3.3246    5.1773 H   0  0  0  0  0  0  0  0  0  0  0  0
    6.9527   -1.7088    3.3119 H   0  0  0  0  0  0  0  0  0  0  0  0
    5.4592   -1.3506    4.0153 H   0  0  0  0  0  0  0  0  0  0  0  0
    4.8979   -2.1413    8.9103 H   0  0  0  0  0  0  0  0  0  0  0  0
    6.3171   -1.3061    9.2774 H   0  0  0  0  0  0  0  0  0  0  0  0
    6.2136   -3.0719    9.8184 H   0  0  0  0  0  0  0  0  0  0  0  0
  1  2  1  0  0  0  0
  2 30  1  0  0  0  0
  2  3  1  0  0  0  0
  3  4  2  0  0  0  0
  3 11  1  0  0  0  0
  4  5  1  0  0  0  0
  5  6  1  0  0  0  0
  5 10  2  0  0  0  0
  6  7  2  0  0  0  0
  7  8  1  0  0  0  0
  8 15  1  0  0  0  0
  8  9  2  0  0  0  0
  9 10  1  0  0  0  0
 10 11  1  0  0  0  0
 11 12  1  0  0  0  0
 12 14  1  0  0  0  0
 12 13  1  0  0  0  0
 14 31  1  0  0  0  0
 14 33  1  0  0  0  0
 14 32  1  0  0  0  0
 15 36  1  0  0  0  0
 15 16  1  0  0  0  0
 16 21  2  0  0  0  0
 16 17  1  0  0  0  0
 17 18  2  0  0  0  0
 18 19  1  0  0  0  0
 19 20  2  0  0  0  0
 20 21  1  0  0  0  0
 20 22  1  0  0  0  0
 22 27  1  0  0  0  0
 22 23  1  0  0  0  0
 23 24  1  0  0  0  0
 24 25  1  0  0  0  0
 25 28  1  0  0  0  0
 25 26  1  0  0  0  0
 26 34  1  0  0  0  0
 26 27  1  0  0  0  0
 28 29  1  0  0  0  0
 30 35  1  0  0  0  0
  1 37  1  0  0  0  0
  1 38  1  0  0  0  0
  1 39  1  0  0  0  0
  2 40  1  0  0  0  0
  6 41  1  0  0  0  0
  9 42  1  0  0  0  0
 12 43  1  0  0  0  0
 13 44  1  0  0  0  0
 13 45  1  0  0  0  0
 13 46  1  0  0  0  0
 17 47  1  0  0  0  0
 18 48  1  0  0  0  0
 23 49  1  0  0  0  0
 23 50  1  0  0  0  0
 24 51  1  0  0  0  0
 24 52  1  0  0  0  0
 25 53  1  0  0  0  0
 26 54  1  0  0  0  0
 27 55  1  0  0  0  0
 27 56  1  0  0  0  0
 29 57  1  0  0  0  0
 29 58  1  0  0  0  0
 29 59  1  0  0  0  0
M  END
> <UNIQUE_SMILES>
COC1CCN(CC1F)c2nccc(Nc3cc4n(C(C)C(F)(F)F)c(nc4cn3)C(C)O)n2

> <KDEEP_PKD>
7.797879695892334

> <KDEEP_DG>
-10.53

$$$$
