C24H28N5O3
APtclcactv01052014103D 0   0.00000     0.00000     1
 
 60 63  0  0  0  0  0  0  0  0999 V2000
    5.1160   11.2780   13.4280 C   0  0  0  0  0  0  0  0  0  0  0  0
    5.5800   10.2780   12.4520 N   0  3  0  0  0  0  0  0  0  0  0  0
    5.5370   10.8410   11.0960 C   0  0  0  0  0  0  0  0  0  0  0  0
    6.0200    9.7920   10.0920 C   0  0  0  0  0  0  0  0  0  0  0  0
    7.3990    9.3980   10.4130 N   0  0  0  0  0  0  0  0  0  0  0  0
    7.4500    8.8420   11.7740 C   0  0  0  0  0  0  0  0  0  0  0  0
    6.9660    9.8970   12.7730 C   0  0  0  0  0  0  0  0  0  0  0  0
    7.8110    8.4830    9.5360 C   0  0  0  0  0  0  0  0  0  0  0  0
    7.1390    7.2690    9.4360 C   0  0  0  0  0  0  0  0  0  0  0  0
    7.5470    6.3280    8.4990 C   0  0  0  0  0  0  0  0  0  0  0  0
    8.6210    6.5920    7.6630 C   0  0  0  0  0  0  0  0  0  0  0  0
    9.2940    7.8020    7.7710 C   0  0  0  0  0  0  0  0  0  0  0  0
    8.8910    8.7450    8.7040 C   0  0  0  0  0  0  0  0  0  0  0  0
    8.9910    5.7090    6.7400 N   0  0  0  0  0  0  0  0  0  0  0  0
    8.3460    4.5520    6.6390 C   0  0  0  0  0  0  0  0  0  0  0  0
    7.4040    4.2230    7.3580 O   0  0  0  0  0  0  0  0  0  0  0  0
    8.8530    3.6110    5.5420 C   0  0  0  0  0  0  0  0  0  0  0  0
    8.3510    2.3170    5.4620 C   0  0  0  0  0  0  0  0  0  0  0  0
    8.7960    1.4610    4.4570 C   0  0  0  0  0  0  0  0  0  0  0  0
    9.7390    1.8920    3.5330 C   0  0  0  0  0  0  0  0  0  0  0  0
   10.2390    3.1950    3.6050 N   0  3  0  0  0  0  0  0  0  0  0  0
    9.7900    4.0560    4.6140 C   0  0  0  0  0  0  0  0  0  0  0  0
   10.2280    5.2030    4.6770 O   0  5  0  0  0  0  0  0  0  0  0  0
    7.4540    1.9140    6.3650 N   0  0  0  0  0  0  0  0  0  0  0  0
    6.9240    0.6910    6.3550 C   0  0  0  0  0  0  0  0  0  0  0  0
    7.2680   -0.2490    5.3900 C   0  0  0  0  0  0  0  0  0  0  0  0
    6.6860   -1.5100    5.4050 C   0  0  0  0  0  0  0  0  0  0  0  0
    5.7600   -1.8380    6.3840 C   0  0  0  0  0  0  0  0  0  0  0  0
    5.4170   -0.9070    7.3540 C   0  0  0  0  0  0  0  0  0  0  0  0
    5.9960    0.3590    7.3390 C   0  0  0  0  0  0  0  0  0  0  0  0
    5.6560    1.2730    8.2870 O   0  0  0  0  0  0  0  0  0  0  0  0
    6.5370    1.1500    9.4020 C   0  0  0  0  0  0  0  0  0  0  0  0
    4.9980    9.4640   12.4930 H   0  0  0  0  0  0  0  0  0  0  0  0
    9.7570    5.9370    6.1350 H   0  0  0  0  0  0  0  0  0  0  0  0
   10.9190    3.5120    2.9420 H   0  0  0  0  0  0  0  0  0  0  0  0
    7.1610    2.5560    7.0750 H   0  0  0  0  0  0  0  0  0  0  0  0
    5.0557   10.8588   14.4594 H   0  0  0  0  0  0  0  0  0  0  0  0
    4.0380   11.5275   13.2905 H   0  0  0  0  0  0  0  0  0  0  0  0
    5.7640   12.1843   13.3824 H   0  0  0  0  0  0  0  0  0  0  0  0
    6.1096   11.7945   11.0174 H   0  0  0  0  0  0  0  0  0  0  0  0
    4.5282   11.2390   10.8369 H   0  0  0  0  0  0  0  0  0  0  0  0
    5.9173   10.1407    9.0379 H   0  0  0  0  0  0  0  0  0  0  0  0
    5.3341    8.9146   10.0385 H   0  0  0  0  0  0  0  0  0  0  0  0
    8.4613    8.4494   12.0318 H   0  0  0  0  0  0  0  0  0  0  0  0
    6.8818    7.8866   11.8610 H   0  0  0  0  0  0  0  0  0  0  0  0
    7.0760    9.5586   13.8297 H   0  0  0  0  0  0  0  0  0  0  0  0
    7.6462   10.7794   12.8167 H   0  0  0  0  0  0  0  0  0  0  0  0
    6.2841    7.0529   10.0986 H   0  0  0  0  0  0  0  0  0  0  0  0
    7.0149    5.3652    8.4183 H   0  0  0  0  0  0  0  0  0  0  0  0
   10.1528    8.0151    7.1125 H   0  0  0  0  0  0  0  0  0  0  0  0
    9.4298    9.7041    8.7844 H   0  0  0  0  0  0  0  0  0  0  0  0
    8.3986    0.4341    4.3924 H   0  0  0  0  0  0  0  0  0  0  0  0
   10.0890    1.2030    2.7460 H   0  0  0  0  0  0  0  0  0  0  0  0
    8.0049    0.0065    4.6101 H   0  0  0  0  0  0  0  0  0  0  0  0
    6.9600   -2.2531    4.6373 H   0  0  0  0  0  0  0  0  0  0  0  0
    5.2965   -2.8389    6.3912 H   0  0  0  0  0  0  0  0  0  0  0  0
    4.6855   -1.1728    8.1355 H   0  0  0  0  0  0  0  0  0  0  0  0
    7.6084    1.2302    9.1038 H   0  0  0  0  0  0  0  0  0  0  0  0
    6.5621    0.1115    9.8072 H   0  0  0  0  0  0  0  0  0  0  0  0
    6.2583    1.8993   10.1792 H   0  0  0  0  0  0  0  0  0  0  0  0
  1  2  1  0  0  0  0
  2 33  1  0  0  0  0
  2  3  1  0  0  0  0
  2  7  1  0  0  0  0
  3  4  1  0  0  0  0
  4  5  1  0  0  0  0
  5  8  1  0  0  0  0
  5  6  1  0  0  0  0
  6  7  1  0  0  0  0
  8 13  1  0  0  0  0
  8  9  2  0  0  0  0
  9 10  1  0  0  0  0
 10 11  2  0  0  0  0
 11 14  1  0  0  0  0
 11 12  1  0  0  0  0
 12 13  2  0  0  0  0
 14 34  1  0  0  0  0
 14 15  1  0  0  0  0
 15 16  2  0  0  0  0
 15 17  1  0  0  0  0
 17 18  1  0  0  0  0
 17 22  2  0  0  0  0
 18 24  1  0  0  0  0
 18 19  2  0  0  0  0
 19 20  1  0  0  0  0
 20 21  2  0  0  0  0
 21 35  1  0  0  0  0
 21 22  1  0  0  0  0
 22 23  1  0  0  0  0
 24 36  1  0  0  0  0
 24 25  1  0  0  0  0
 25 26  1  0  0  0  0
 25 30  2  0  0  0  0
 26 27  2  0  0  0  0
 27 28  1  0  0  0  0
 28 29  2  0  0  0  0
 29 30  1  0  0  0  0
 30 31  1  0  0  0  0
 31 32  1  0  0  0  0
  1 37  1  0  0  0  0
  1 38  1  0  0  0  0
  1 39  1  0  0  0  0
  3 40  1  0  0  0  0
  3 41  1  0  0  0  0
  4 42  1  0  0  0  0
  4 43  1  0  0  0  0
  6 44  1  0  0  0  0
  6 45  1  0  0  0  0
  7 46  1  0  0  0  0
  7 47  1  0  0  0  0
  9 48  1  0  0  0  0
 10 49  1  0  0  0  0
 12 50  1  0  0  0  0
 13 51  1  0  0  0  0
 19 52  1  0  0  0  0
 20 53  1  0  0  0  0
 26 54  1  0  0  0  0
 27 55  1  0  0  0  0
 28 56  1  0  0  0  0
 29 57  1  0  0  0  0
 32 58  1  0  0  0  0
 32 59  1  0  0  0  0
 32 60  1  0  0  0  0
M  CHG  3   2   1  21   1  23  -1
M  END
> <UNIQUE_SMILES>
COc1ccccc1Nc2cc[nH+]c([O-])c2C(=O)Nc3ccc(cc3)N4CC[NH+](C)CC4

> <KDEEP_PKD>
6.227835178375244

> <KDEEP_DG>
-8.41

$$$$
