C26H29Cl2N5O3
APtclcactv01052013053D 0   0.00000     0.00000     1
 
 65 68  0  0  0  0  0  0  0  0999 V2000
   10.9590  -40.4850   -5.0740 C   0  0  0  0  0  0  0  0  0  0  0  0
   16.5580  -39.7590   -3.6310 C   0  0  0  0  0  0  0  0  0  0  0  0
    9.4950  -33.7530   -8.6480 C   0  0  0  0  0  0  0  0  0  0  0  0
   11.9990  -34.2900   -8.4650 C   0  0  0  0  0  0  0  0  0  0  0  0
    5.4970  -34.5420   -7.3350 C   0  0  0  0  0  0  0  0  0  0  0  0
    7.5170  -35.7880   -9.1720 C   0  0  0  0  0  0  0  0  0  0  0  0
   14.0860  -37.0120   -6.6610 C   0  0  0  0  0  0  0  0  0  0  0  0
   11.2790  -38.0170   -6.1460 C   0  0  0  0  0  0  0  0  0  0  0  0
   17.2150  -38.7720   -4.5870 C   0  0  0  0  0  0  0  0  0  0  0  0
   16.2580  -38.4840   -5.7420 C   0  0  0  0  0  0  0  0  0  0  0  0
   20.5500  -40.8800    0.4190 C   0  0  0  0  0  0  0  0  0  0  0  0
   17.2040  -39.9490   -1.1030 C   0  0  0  0  0  0  0  0  0  0  0  0
   18.9100  -39.7610   -2.7710 C   0  0  0  0  0  0  0  0  0  0  0  0
   18.1740  -40.7830   -0.2370 C   0  0  0  0  0  0  0  0  0  0  0  0
   19.8010  -40.6730   -1.9810 C   0  0  0  0  0  0  0  0  0  0  0  0
    6.3100  -35.1030   -9.7260 C   0  0  0  0  0  0  0  0  0  0  0  0
    5.2960  -34.4780   -8.8040 C   0  0  0  0  0  0  0  0  0  0  0  0
    6.6960  -35.2160   -6.7650 C   0  0  0  0  0  0  0  0  0  0  0  0
    8.6790  -33.0220   -8.9500 N   0  0  0  0  0  0  0  0  0  0  0  0
   13.1050  -35.0320   -7.9540 N   0  0  0  0  0  0  0  0  0  0  0  0
    8.9140  -36.5110   -7.1880 N   0  0  0  0  0  0  0  0  0  0  0  0
   12.2150  -39.9120   -4.9170 O   0  0  0  0  0  0  0  0  0  0  0  0
   14.9810  -38.9540   -5.3970 O   0  0  0  0  0  0  0  0  0  0  0  0
   10.5750  -34.7170   -8.2600 C   0  0  0  0  0  0  0  0  0  0  0  0
    7.7200  -35.8440   -7.6830 C   0  0  0  0  0  0  0  0  0  0  0  0
   12.4690  -38.7630   -5.6250 C   0  0  0  0  0  0  0  0  0  0  0  0
   13.8580  -38.2700   -5.8810 C   0  0  0  0  0  0  0  0  0  0  0  0
   10.2720  -35.9900   -7.4730 C   0  0  0  0  0  0  0  0  0  0  0  0
   12.8970  -36.2380   -7.2000 C   0  0  0  0  0  0  0  0  0  0  0  0
   11.4900  -36.7550   -6.9360 C   0  0  0  0  0  0  0  0  0  0  0  0
   17.5250  -40.1050   -2.5300 N   0  0  0  0  0  0  0  0  0  0  0  0
   19.5520  -40.4990   -0.5760 N   0  0  0  0  0  0  0  0  0  0  0  0
    3.8810  -33.6760   -9.3940 Cl  0  0  0  0  0  0  0  0  0  0  0  0
    6.8270  -35.2340   -5.0320 Cl  0  0  0  0  0  0  0  0  0  0  0  0
    7.3100  -34.9370  -11.8780 C   0  0  0  0  0  0  0  0  0  0  0  0
    6.1670  -35.0660  -11.0910 O   0  0  0  0  0  0  0  0  0  0  0  0
   10.7651  -40.6651   -6.1572 H   0  0  0  0  0  0  0  0  0  0  0  0
   10.1734  -39.7270   -4.8471 H   0  0  0  0  0  0  0  0  0  0  0  0
   10.7528  -41.4179   -4.4992 H   0  0  0  0  0  0  0  0  0  0  0  0
   15.5859  -39.3815   -3.2363 H   0  0  0  0  0  0  0  0  0  0  0  0
   16.1745  -40.6646   -4.1565 H   0  0  0  0  0  0  0  0  0  0  0  0
   12.2482  -33.3737   -9.0262 H   0  0  0  0  0  0  0  0  0  0  0  0
    4.7508  -34.0859   -6.6628 H   0  0  0  0  0  0  0  0  0  0  0  0
    8.2507  -36.2477   -9.8553 H   0  0  0  0  0  0  0  0  0  0  0  0
   15.1165  -36.6600   -6.8363 H   0  0  0  0  0  0  0  0  0  0  0  0
   10.2604  -38.3922   -5.9504 H   0  0  0  0  0  0  0  0  0  0  0  0
   18.2125  -39.1235   -4.9402 H   0  0  0  0  0  0  0  0  0  0  0  0
   17.5503  -37.8417   -4.0719 H   0  0  0  0  0  0  0  0  0  0  0  0
   16.6195  -38.9031   -6.7099 H   0  0  0  0  0  0  0  0  0  0  0  0
   16.2521  -37.4076   -6.0326 H   0  0  0  0  0  0  0  0  0  0  0  0
   20.4381  -41.9602    0.6717 H   0  0  0  0  0  0  0  0  0  0  0  0
   20.2996  -40.4166    1.4017 H   0  0  0  0  0  0  0  0  0  0  0  0
   21.6117  -40.6612    0.1578 H   0  0  0  0  0  0  0  0  0  0  0  0
   16.1384  -40.1968   -0.8880 H   0  0  0  0  0  0  0  0  0  0  0  0
   17.1904  -38.8773   -0.7956 H   0  0  0  0  0  0  0  0  0  0  0  0
   19.1183  -38.6857   -2.5625 H   0  0  0  0  0  0  0  0  0  0  0  0
   19.1612  -39.7654   -3.8573 H   0  0  0  0  0  0  0  0  0  0  0  0
   17.9510  -41.8733   -0.3053 H   0  0  0  0  0  0  0  0  0  0  0  0
   17.9808  -40.6375    0.8515 H   0  0  0  0  0  0  0  0  0  0  0  0
   20.8772  -40.5329   -2.2367 H   0  0  0  0  0  0  0  0  0  0  0  0
   19.6974  -41.7374   -2.2966 H   0  0  0  0  0  0  0  0  0  0  0  0
    8.8805  -37.4824   -7.4974 H   0  0  0  0  0  0  0  0  0  0  0  0
    8.0263  -35.7488  -11.6113 H   0  0  0  0  0  0  0  0  0  0  0  0
    7.8756  -34.0342  -11.5490 H   0  0  0  0  0  0  0  0  0  0  0  0
    7.1939  -34.9070  -12.9865 H   0  0  0  0  0  0  0  0  0  0  0  0
  1 22  1  0  0  0  0
  2 31  1  0  0  0  0
  2  9  1  0  0  0  0
  3 19  3  0  0  0  0
  3 24  1  0  0  0  0
  4 20  1  0  0  0  0
  4 24  2  0  0  0  0
  5 17  1  0  0  0  0
  5 18  2  0  0  0  0
  6 16  1  0  0  0  0
  6 25  2  0  0  0  0
  7 27  2  0  0  0  0
  7 29  1  0  0  0  0
  8 26  2  0  0  0  0
  8 30  1  0  0  0  0
  9 10  1  0  0  0  0
 10 23  1  0  0  0  0
 11 32  1  0  0  0  0
 12 31  1  0  0  0  0
 12 14  1  0  0  0  0
 13 31  1  0  0  0  0
 13 15  1  0  0  0  0
 14 32  1  0  0  0  0
 15 32  1  0  0  0  0
 16 36  1  0  0  0  0
 16 17  2  0  0  0  0
 17 33  1  0  0  0  0
 18 25  1  0  0  0  0
 18 34  1  0  0  0  0
 20 29  2  0  0  0  0
 21 25  1  0  0  0  0
 21 28  1  0  0  0  0
 22 26  1  0  0  0  0
 23 27  1  0  0  0  0
 24 28  1  0  0  0  0
 26 27  1  0  0  0  0
 28 30  2  0  0  0  0
 29 30  1  0  0  0  0
 35 36  1  0  0  0  0
  1 37  1  0  0  0  0
  1 38  1  0  0  0  0
  1 39  1  0  0  0  0
  2 40  1  0  0  0  0
  2 41  1  0  0  0  0
  4 42  1  0  0  0  0
  5 43  1  0  0  0  0
  6 44  1  0  0  0  0
  7 45  1  0  0  0  0
  8 46  1  0  0  0  0
  9 47  1  0  0  0  0
  9 48  1  0  0  0  0
 10 49  1  0  0  0  0
 10 50  1  0  0  0  0
 11 51  1  0  0  0  0
 11 52  1  0  0  0  0
 11 53  1  0  0  0  0
 12 54  1  0  0  0  0
 12 55  1  0  0  0  0
 13 56  1  0  0  0  0
 13 57  1  0  0  0  0
 14 58  1  0  0  0  0
 14 59  1  0  0  0  0
 15 60  1  0  0  0  0
 15 61  1  0  0  0  0
 21 62  1  0  0  0  0
 35 63  1  0  0  0  0
 35 64  1  0  0  0  0
 35 65  1  0  0  0  0
M  END
> <UNIQUE_SMILES>
COc1cc(Nc2c(cnc3cc(OCCCN4CCN(C)CC4)c(OC)cc23)C#N)c(Cl)cc1Cl

$$$$
