C21H21FN6O
APtclcactv01052013143D 0   0.00000     0.00000     1
 
 50 54  0  0  0  0  0  0  0  0999 V2000
  220.0510  -10.4830   31.8860 C   0  0  0  0  0  0  0  0  0  0  0  0
  219.7510   -9.9570   30.5430 N   0  0  0  0  0  0  0  0  0  0  0  0
  220.9950   -9.5940   29.8570 C   0  0  0  0  0  0  0  0  0  0  0  0
  220.6900   -9.4060   28.3760 C   0  0  0  0  0  0  0  0  0  0  0  0
  219.5800   -8.4680   28.2540 N   0  0  0  0  0  0  0  0  0  0  0  0
  218.8860   -7.8770   29.4100 C   0  0  0  0  0  0  0  0  0  0  0  0
  218.8910   -8.7680   30.6600 C   0  0  0  0  0  0  0  0  0  0  0  0
  219.1620   -8.0260   26.9900 C   0  0  0  0  0  0  0  0  0  0  0  0
  218.2310   -8.7290   26.2010 C   0  0  0  0  0  0  0  0  0  0  0  0
  217.8480   -8.2160   24.9560 C   0  0  0  0  0  0  0  0  0  0  0  0
  217.0250   -8.5950   23.9450 N   0  0  0  0  0  0  0  0  0  0  0  0
  217.0880   -7.6070   23.0210 C   0  0  0  0  0  0  0  0  0  0  0  0
  217.9450   -6.6300   23.3430 N   0  0  0  0  0  0  0  0  0  0  0  0
  218.4520   -6.9250   24.5400 C   0  0  0  0  0  0  0  0  0  0  0  0
  219.3650   -6.2640   25.3490 C   0  0  0  0  0  0  0  0  0  0  0  0
  219.7080   -6.8140   26.5710 C   0  0  0  0  0  0  0  0  0  0  0  0
  216.3180   -7.7190   21.7510 C   0  0  0  0  0  0  0  0  0  0  0  0
  216.6060   -6.7820   20.6290 C   0  0  0  0  0  0  0  0  0  0  0  0
  217.5420   -5.7970   20.7280 N   0  0  0  0  0  0  0  0  0  0  0  0
  215.8250   -6.9660   19.3770 C   0  0  0  0  0  0  0  0  0  0  0  0
  216.0000   -6.1170   18.1740 C   0  0  0  0  0  0  0  0  0  0  0  0
  215.2190   -6.3730   17.0370 C   0  0  0  0  0  0  0  0  0  0  0  0
  214.2820   -7.4040   17.0320 C   0  0  0  0  0  0  0  0  0  0  0  0
  214.0770   -8.2270   18.1430 C   0  0  0  0  0  0  0  0  0  0  0  0
  214.8090   -8.0490   19.3190 C   0  0  0  0  0  0  0  0  0  0  0  0
  214.6160   -8.8510   20.3720 N   0  0  0  0  0  0  0  0  0  0  0  0
  215.2770   -8.7470   21.5410 C   0  0  0  0  0  0  0  0  0  0  0  0
  215.0160   -9.5510   22.4660 O   0  0  0  0  0  0  0  0  0  0  0  0
  216.9150   -5.1280   18.1870 F   0  0  0  0  0  0  0  0  0  0  0  0
  220.6665   -9.7722   32.4852 H   0  0  0  0  0  0  0  0  0  0  0  0
  220.7719  -11.3329   31.8505 H   0  0  0  0  0  0  0  0  0  0  0  0
  219.1050  -10.7590   32.4077 H   0  0  0  0  0  0  0  0  0  0  0  0
  221.8136  -10.3295   30.0361 H   0  0  0  0  0  0  0  0  0  0  0  0
  221.4897   -8.7030   30.3093 H   0  0  0  0  0  0  0  0  0  0  0  0
  220.4970  -10.3707   27.8512 H   0  0  0  0  0  0  0  0  0  0  0  0
  221.5847   -9.0916   27.7896 H   0  0  0  0  0  0  0  0  0  0  0  0
  217.8437   -7.5901   29.1370 H   0  0  0  0  0  0  0  0  0  0  0  0
  219.3026   -6.8697   29.6447 H   0  0  0  0  0  0  0  0  0  0  0  0
  219.1643   -8.1742   31.5633 H   0  0  0  0  0  0  0  0  0  0  0  0
  217.8514   -9.0621   30.9356 H   0  0  0  0  0  0  0  0  0  0  0  0
  217.8022   -9.6805   26.5578 H   0  0  0  0  0  0  0  0  0  0  0  0
  218.1705   -5.8104   22.7792 H   0  0  0  0  0  0  0  0  0  0  0  0
  219.8139   -5.3104   25.0238 H   0  0  0  0  0  0  0  0  0  0  0  0
  220.4244   -6.2805   27.2181 H   0  0  0  0  0  0  0  0  0  0  0  0
  218.4227   -6.2329   21.0014 H   0  0  0  0  0  0  0  0  0  0  0  0
  217.7392   -5.1555   19.9599 H   0  0  0  0  0  0  0  0  0  0  0  0
  215.3436   -5.7539   16.1327 H   0  0  0  0  0  0  0  0  0  0  0  0
  213.6843   -7.5738   16.1207 H   0  0  0  0  0  0  0  0  0  0  0  0
  213.3241   -9.0313   18.0908 H   0  0  0  0  0  0  0  0  0  0  0  0
  213.9194   -9.5900   20.2774 H   0  0  0  0  0  0  0  0  0  0  0  0
  1  2  1  0  0  0  0
  2  3  1  0  0  0  0
  2  7  1  0  0  0  0
  3  4  1  0  0  0  0
  4  5  1  0  0  0  0
  5  8  1  0  0  0  0
  5  6  1  0  0  0  0
  6  7  1  0  0  0  0
  8 16  2  0  0  0  0
  8  9  1  0  0  0  0
  9 10  2  0  0  0  0
 10 11  1  0  0  0  0
 10 14  1  0  0  0  0
 11 12  2  0  0  0  0
 12 13  1  0  0  0  0
 12 17  1  0  0  0  0
 13 14  1  0  0  0  0
 14 15  2  0  0  0  0
 15 16  1  0  0  0  0
 17 27  1  0  0  0  0
 17 18  2  0  0  0  0
 18 19  1  0  0  0  0
 18 20  1  0  0  0  0
 20 21  1  0  0  0  0
 20 25  2  0  0  0  0
 21 29  1  0  0  0  0
 21 22  2  0  0  0  0
 22 23  1  0  0  0  0
 23 24  2  0  0  0  0
 24 25  1  0  0  0  0
 25 26  1  0  0  0  0
 26 27  1  0  0  0  0
 27 28  2  0  0  0  0
  1 30  1  0  0  0  0
  1 31  1  0  0  0  0
  1 32  1  0  0  0  0
  3 33  1  0  0  0  0
  3 34  1  0  0  0  0
  4 35  1  0  0  0  0
  4 36  1  0  0  0  0
  6 37  1  0  0  0  0
  6 38  1  0  0  0  0
  7 39  1  0  0  0  0
  7 40  1  0  0  0  0
  9 41  1  0  0  0  0
 13 42  1  0  0  0  0
 15 43  1  0  0  0  0
 16 44  1  0  0  0  0
 19 45  1  0  0  0  0
 19 46  1  0  0  0  0
 22 47  1  0  0  0  0
 23 48  1  0  0  0  0
 24 49  1  0  0  0  0
 26 50  1  0  0  0  0
M  END
> <UNIQUE_SMILES>
CN1CCN(CC1)c2ccc3[nH]c(nc3c2)C4=C(N)c5c(F)cccc5NC4=O

$$$$
