C26H27N7O2
APtclcactv01052013193D 0   0.00000     0.00000     1
 
 62 66  0  0  0  0  0  0  0  0999 V2000
  -34.7310  -18.6520  -10.3130 N   0  0  0  0  0  0  0  0  0  0  0  0
  -36.1870  -18.7650  -12.2270 C   0  0  0  0  0  0  0  0  0  0  0  0
  -37.8880  -15.4070  -14.7730 O   0  0  0  0  0  0  0  0  0  0  0  0
  -35.4460  -19.3290  -11.2140 C   0  0  0  0  0  0  0  0  0  0  0  0
  -36.9610  -16.9810  -13.3920 N   0  0  0  0  0  0  0  0  0  0  0  0
  -36.5730  -14.7580  -13.0670 O   0  0  0  0  0  0  0  0  0  0  0  0
  -34.7280  -17.3210  -10.3920 C   0  0  0  0  0  0  0  0  0  0  0  0
  -39.0580  -19.0090  -17.0350 N   0  0  0  0  0  0  0  0  0  0  0  0
  -35.4360  -16.6160  -11.3650 C   0  0  0  0  0  0  0  0  0  0  0  0
  -39.8810  -17.9570  -16.7100 N   0  0  0  0  0  0  0  0  0  0  0  0
  -36.1630  -17.3600  -12.2860 C   0  0  0  0  0  0  0  0  0  0  0  0
  -33.9460  -16.6950   -9.4430 N   0  0  0  0  0  0  0  0  0  0  0  0
  -37.4620  -18.1350  -13.9860 C   0  0  0  0  0  0  0  0  0  0  0  0
  -31.8460  -10.6380   -7.9060 N   0  0  0  0  0  0  0  0  0  0  0  0
  -37.0110  -19.2220  -13.3030 C   0  0  0  0  0  0  0  0  0  0  0  0
  -32.9530   -8.9230   -8.8560 N   0  0  0  0  0  0  0  0  0  0  0  0
  -38.3000  -18.2310  -15.1390 C   0  0  0  0  0  0  0  0  0  0  0  0
  -38.1060  -19.1910  -16.1130 C   0  0  0  0  0  0  0  0  0  0  0  0
  -39.4160  -17.4930  -15.5640 C   0  0  0  0  0  0  0  0  0  0  0  0
  -39.2720  -19.7760  -18.2550 C   0  0  0  0  0  0  0  0  0  0  0  0
  -37.1970  -15.6690  -13.8230 C   0  0  0  0  0  0  0  0  0  0  0  0
  -36.6910  -13.3560  -13.4840 C   0  0  0  0  0  0  0  0  0  0  0  0
  -37.4590  -12.6400  -12.4310 C   0  0  0  0  0  0  0  0  0  0  0  0
  -35.3090  -12.8280  -13.6650 C   0  0  0  0  0  0  0  0  0  0  0  0
  -33.6880  -15.3260   -9.2550 C   0  0  0  0  0  0  0  0  0  0  0  0
  -33.4110  -14.8340   -7.9870 C   0  0  0  0  0  0  0  0  0  0  0  0
  -33.1520  -13.4900   -7.8030 C   0  0  0  0  0  0  0  0  0  0  0  0
  -33.1630  -12.6100   -8.8780 C   0  0  0  0  0  0  0  0  0  0  0  0
  -33.4420  -13.1100  -10.1440 C   0  0  0  0  0  0  0  0  0  0  0  0
  -33.7010  -14.4530  -10.3320 C   0  0  0  0  0  0  0  0  0  0  0  0
  -32.8770  -11.1750   -8.6860 C   0  0  0  0  0  0  0  0  0  0  0  0
  -31.9580   -9.2750   -8.0680 C   0  0  0  0  0  0  0  0  0  0  0  0
  -33.5470  -10.0890   -9.2570 C   0  0  0  0  0  0  0  0  0  0  0  0
  -31.0260   -8.3240   -7.4130 C   0  0  0  0  0  0  0  0  0  0  0  0
  -30.8650  -11.3450   -7.0800 C   0  0  0  0  0  0  0  0  0  0  0  0
  -35.4230  -20.4273  -11.1149 H   0  0  0  0  0  0  0  0  0  0  0  0
  -35.4216  -15.5138  -11.4046 H   0  0  0  0  0  0  0  0  0  0  0  0
  -33.0276  -17.1315   -9.5233 H   0  0  0  0  0  0  0  0  0  0  0  0
  -37.2624  -20.2628  -13.5679 H   0  0  0  0  0  0  0  0  0  0  0  0
  -37.3251  -19.9692  -16.1484 H   0  0  0  0  0  0  0  0  0  0  0  0
  -39.8806  -16.6351  -15.0494 H   0  0  0  0  0  0  0  0  0  0  0  0
  -39.3576  -20.8405  -17.9346 H   0  0  0  0  0  0  0  0  0  0  0  0
  -38.3037  -19.7470  -18.8070 H   0  0  0  0  0  0  0  0  0  0  0  0
  -40.0655  -19.6243  -19.0235 H   0  0  0  0  0  0  0  0  0  0  0  0
  -37.2349  -13.2235  -14.4483 H   0  0  0  0  0  0  0  0  0  0  0  0
  -37.0151  -12.7555  -11.4147 H   0  0  0  0  0  0  0  0  0  0  0  0
  -38.4448  -13.1135  -12.2140 H   0  0  0  0  0  0  0  0  0  0  0  0
  -37.5487  -11.5747  -12.7478 H   0  0  0  0  0  0  0  0  0  0  0  0
  -34.6969  -13.4412  -14.3668 H   0  0  0  0  0  0  0  0  0  0  0  0
  -34.6699  -12.9613  -12.7611 H   0  0  0  0  0  0  0  0  0  0  0  0
  -35.3987  -11.7627  -13.9818 H   0  0  0  0  0  0  0  0  0  0  0  0
  -33.3966  -15.5155   -7.1199 H   0  0  0  0  0  0  0  0  0  0  0  0
  -32.9344  -13.1161   -6.7884 H   0  0  0  0  0  0  0  0  0  0  0  0
  -33.4581  -12.4306  -11.0128 H   0  0  0  0  0  0  0  0  0  0  0  0
  -33.9189  -14.8296  -11.3456 H   0  0  0  0  0  0  0  0  0  0  0  0
  -34.4203  -10.1443   -9.9285 H   0  0  0  0  0  0  0  0  0  0  0  0
  -29.9882   -8.6154   -7.6980 H   0  0  0  0  0  0  0  0  0  0  0  0
  -31.0369   -8.5376   -6.3187 H   0  0  0  0  0  0  0  0  0  0  0  0
  -31.1167   -7.2205   -7.5442 H   0  0  0  0  0  0  0  0  0  0  0  0
  -30.9581  -10.9177   -6.0543 H   0  0  0  0  0  0  0  0  0  0  0  0
  -29.8631  -10.9896   -7.4164 H   0  0  0  0  0  0  0  0  0  0  0  0
  -30.7743  -12.4485   -6.9488 H   0  0  0  0  0  0  0  0  0  0  0  0
  1  7  1  0  0  0  0
  1  4  2  0  0  0  0
  2  4  1  0  0  0  0
  2 11  2  0  0  0  0
  2 15  1  0  0  0  0
  3 21  2  0  0  0  0
  5 13  1  0  0  0  0
  5 21  1  0  0  0  0
  5 11  1  0  0  0  0
  6 21  1  0  0  0  0
  6 22  1  0  0  0  0
  7 12  1  0  0  0  0
  7  9  2  0  0  0  0
  8 18  1  0  0  0  0
  8 10  1  0  0  0  0
  8 20  1  0  0  0  0
  9 11  1  0  0  0  0
 10 19  2  0  0  0  0
 12 25  1  0  0  0  0
 13 15  2  0  0  0  0
 13 17  1  0  0  0  0
 14 32  1  0  0  0  0
 14 31  1  0  0  0  0
 14 35  1  0  0  0  0
 16 32  2  0  0  0  0
 16 33  1  0  0  0  0
 17 18  2  0  0  0  0
 17 19  1  0  0  0  0
 22 23  1  0  0  0  0
 22 24  1  0  0  0  0
 25 30  1  0  0  0  0
 25 26  2  0  0  0  0
 26 27  1  0  0  0  0
 27 28  2  0  0  0  0
 28 29  1  0  0  0  0
 28 31  1  0  0  0  0
 29 30  2  0  0  0  0
 31 33  2  0  0  0  0
 32 34  1  0  0  0  0
  4 36  1  0  0  0  0
  9 37  1  0  0  0  0
 12 38  1  0  0  0  0
 15 39  1  0  0  0  0
 18 40  1  0  0  0  0
 19 41  1  0  0  0  0
 20 42  1  0  0  0  0
 20 43  1  0  0  0  0
 20 44  1  0  0  0  0
 22 45  1  0  0  0  0
 23 46  1  0  0  0  0
 23 47  1  0  0  0  0
 23 48  1  0  0  0  0
 24 49  1  0  0  0  0
 24 50  1  0  0  0  0
 24 51  1  0  0  0  0
 26 52  1  0  0  0  0
 27 53  1  0  0  0  0
 29 54  1  0  0  0  0
 30 55  1  0  0  0  0
 33 56  1  0  0  0  0
 34 57  1  0  0  0  0
 34 58  1  0  0  0  0
 34 59  1  0  0  0  0
 35 60  1  0  0  0  0
 35 61  1  0  0  0  0
 35 62  1  0  0  0  0
M  END
> <UNIQUE_SMILES>
CC(C)OC(=O)n1c2cc(Nc3ccc(cc3)c4cnc(C)n4C)ncc2cc1c5cnn(C)c5

$$$$
