C24H27N5O3
APtclcactv01052013293D 0   0.00000     0.00000     1
 
 59 62  0  0  0  0  0  0  0  0999 V2000
  -49.7110   -1.1880  -11.2030 C   0  0  0  0  0  0  0  0  0  0  0  0
  -50.0830   -0.9390  -12.6050 N   0  0  0  0  0  0  0  0  0  0  0  0
  -51.4330   -0.3510  -12.6920 C   0  0  0  0  0  0  0  0  0  0  0  0
  -51.8270   -0.2460  -14.1720 C   0  0  0  0  0  0  0  0  0  0  0  0
  -50.8280    0.5310  -14.9510 N   0  0  0  0  0  0  0  0  0  0  0  0
  -49.4240    0.0680  -14.7800 C   0  0  0  0  0  0  0  0  0  0  0  0
  -49.0560   -0.1250  -13.2960 C   0  0  0  0  0  0  0  0  0  0  0  0
  -51.2530    0.6660  -16.2970 C   0  0  0  0  0  0  0  0  0  0  0  0
  -52.2290    1.6250  -16.6070 C   0  0  0  0  0  0  0  0  0  0  0  0
  -52.7040    1.7560  -17.9060 C   0  0  0  0  0  0  0  0  0  0  0  0
  -52.2240    0.9360  -18.9350 C   0  0  0  0  0  0  0  0  0  0  0  0
  -51.2640   -0.0400  -18.6310 C   0  0  0  0  0  0  0  0  0  0  0  0
  -50.7880   -0.1750  -17.3290 C   0  0  0  0  0  0  0  0  0  0  0  0
  -52.7950    1.1280  -20.2160 N   0  0  0  0  0  0  0  0  0  0  0  0
  -52.5820    0.4810  -21.3970 C   0  0  0  0  0  0  0  0  0  0  0  0
  -51.7690   -0.4230  -21.4400 O   0  0  0  0  0  0  0  0  0  0  0  0
  -53.3700    0.8480  -22.6140 C   0  0  0  0  0  0  0  0  0  0  0  0
  -53.1550    0.2210  -23.8920 C   0  0  0  0  0  0  0  0  0  0  0  0
  -53.9620    0.6190  -24.9940 C   0  0  0  0  0  0  0  0  0  0  0  0
  -54.9270    1.5560  -24.8610 C   0  0  0  0  0  0  0  0  0  0  0  0
  -55.1370    2.1560  -23.6620 N   0  3  0  0  0  0  0  0  0  0  0  0
  -54.4130    1.8440  -22.5590 C   0  0  0  0  0  0  0  0  0  0  0  0
  -54.6880    2.4540  -21.5370 O   0  5  0  0  0  0  0  0  0  0  0  0
  -52.1740   -0.7510  -24.0770 N   0  0  0  0  0  0  0  0  0  0  0  0
  -52.0180   -1.5790  -25.2110 C   0  0  0  0  0  0  0  0  0  0  0  0
  -51.5910   -1.0340  -26.4320 C   0  0  0  0  0  0  0  0  0  0  0  0
  -51.4340   -1.8440  -27.5520 C   0  0  0  0  0  0  0  0  0  0  0  0
  -51.6470   -3.2160  -27.4540 C   0  0  0  0  0  0  0  0  0  0  0  0
  -52.0360   -3.7770  -26.2400 C   0  0  0  0  0  0  0  0  0  0  0  0
  -52.2040   -2.9740  -25.1050 C   0  0  0  0  0  0  0  0  0  0  0  0
  -52.6060   -3.5420  -23.9260 O   0  0  0  0  0  0  0  0  0  0  0  0
  -51.6200   -4.0780  -23.0330 C   0  0  0  0  0  0  0  0  0  0  0  0
  -55.8300    2.8320  -23.5970 H   0  0  0  0  0  0  0  0  0  0  0  0
  -50.4693   -1.8165  -10.6803 H   0  0  0  0  0  0  0  0  0  0  0  0
  -49.8003   -0.2660  -10.5824 H   0  0  0  0  0  0  0  0  0  0  0  0
  -48.6905   -1.6325  -11.1372 H   0  0  0  0  0  0  0  0  0  0  0  0
  -51.5088    0.6256  -12.1594 H   0  0  0  0  0  0  0  0  0  0  0  0
  -52.1836   -0.9133  -12.0889 H   0  0  0  0  0  0  0  0  0  0  0  0
  -52.8527    0.1746  -14.2913 H   0  0  0  0  0  0  0  0  0  0  0  0
  -51.9990   -1.2525  -14.6199 H   0  0  0  0  0  0  0  0  0  0  0  0
  -48.7071    0.7540  -15.2886 H   0  0  0  0  0  0  0  0  0  0  0  0
  -49.2290   -0.8585  -15.3689 H   0  0  0  0  0  0  0  0  0  0  0  0
  -48.0354   -0.5577  -13.1758 H   0  0  0  0  0  0  0  0  0  0  0  0
  -48.8858    0.8496  -12.7819 H   0  0  0  0  0  0  0  0  0  0  0  0
  -52.6284    2.2850  -15.8186 H   0  0  0  0  0  0  0  0  0  0  0  0
  -53.4703    2.5191  -18.1227 H   0  0  0  0  0  0  0  0  0  0  0  0
  -50.8805   -0.7064  -19.4218 H   0  0  0  0  0  0  0  0  0  0  0  0
  -50.0372   -0.9538  -17.1136 H   0  0  0  0  0  0  0  0  0  0  0  0
  -53.4888    1.8705  -20.3045 H   0  0  0  0  0  0  0  0  0  0  0  0
  -53.8336    0.1808  -25.9980 H   0  0  0  0  0  0  0  0  0  0  0  0
  -55.5443    1.8315  -25.7326 H   0  0  0  0  0  0  0  0  0  0  0  0
  -52.2359   -1.3760  -23.2733 H   0  0  0  0  0  0  0  0  0  0  0  0
  -51.3760    0.0449  -26.5124 H   0  0  0  0  0  0  0  0  0  0  0  0
  -51.1407   -1.3985  -28.5175 H   0  0  0  0  0  0  0  0  0  0  0  0
  -51.5074   -3.8592  -28.3391 H   0  0  0  0  0  0  0  0  0  0  0  0
  -52.2121   -4.8640  -26.1770 H   0  0  0  0  0  0  0  0  0  0  0  0
  -50.8711   -3.2829  -22.8092 H   0  0  0  0  0  0  0  0  0  0  0  0
  -50.9967   -4.8156  -23.5904 H   0  0  0  0  0  0  0  0  0  0  0  0
  -51.9474   -4.5406  -22.0728 H   0  0  0  0  0  0  0  0  0  0  0  0
  1  2  1  0  0  0  0
  2  3  1  0  0  0  0
  2  7  1  0  0  0  0
  3  4  1  0  0  0  0
  4  5  1  0  0  0  0
  5  8  1  0  0  0  0
  5  6  1  0  0  0  0
  6  7  1  0  0  0  0
  8  9  1  0  0  0  0
  8 13  2  0  0  0  0
  9 10  2  0  0  0  0
 10 11  1  0  0  0  0
 11 12  2  0  0  0  0
 11 14  1  0  0  0  0
 12 13  1  0  0  0  0
 14 15  1  0  0  0  0
 15 16  2  0  0  0  0
 15 17  1  0  0  0  0
 17 18  1  0  0  0  0
 17 22  2  0  0  0  0
 18 24  1  0  0  0  0
 18 19  2  0  0  0  0
 19 20  1  0  0  0  0
 20 21  2  0  0  0  0
 21 33  1  0  0  0  0
 21 22  1  0  0  0  0
 22 23  1  0  0  0  0
 24 25  1  0  0  0  0
 25 26  1  0  0  0  0
 25 30  2  0  0  0  0
 26 27  2  0  0  0  0
 27 28  1  0  0  0  0
 28 29  2  0  0  0  0
 29 30  1  0  0  0  0
 30 31  1  0  0  0  0
 31 32  1  0  0  0  0
  1 34  1  0  0  0  0
  1 35  1  0  0  0  0
  1 36  1  0  0  0  0
  3 37  1  0  0  0  0
  3 38  1  0  0  0  0
  4 39  1  0  0  0  0
  4 40  1  0  0  0  0
  6 41  1  0  0  0  0
  6 42  1  0  0  0  0
  7 43  1  0  0  0  0
  7 44  1  0  0  0  0
  9 45  1  0  0  0  0
 10 46  1  0  0  0  0
 12 47  1  0  0  0  0
 13 48  1  0  0  0  0
 14 49  1  0  0  0  0
 19 50  1  0  0  0  0
 20 51  1  0  0  0  0
 24 52  1  0  0  0  0
 26 53  1  0  0  0  0
 27 54  1  0  0  0  0
 28 55  1  0  0  0  0
 29 56  1  0  0  0  0
 32 57  1  0  0  0  0
 32 58  1  0  0  0  0
 32 59  1  0  0  0  0
M  CHG  2  21   1  23  -1
M  END
> <UNIQUE_SMILES>
COc1ccccc1Nc2cc[nH+]c([O-])c2C(=O)Nc3ccc(cc3)N4CCN(C)CC4

$$$$
