@<TRIPOS>MOLECULE
4clj_w_Lig.pdb
 32 35 0 0 0
SMALL
GASTEIGER

@<TRIPOS>ATOM
      1  C1        -9.8830    5.6140   -3.4800 C.ar    1  5P81        0.1698
      2  C2       -10.5900    6.5770   -2.7740 C.ar    1  5P81        0.1597
      3  N3       -10.6640    7.8370   -3.2240 N.ar    1  5P81       -0.2265
      4  C4       -10.0640    8.2010   -4.3430 C.ar    1  5P81        0.1006
      5  C5        -9.3360    7.2880   -5.1000 C.ar    1  5P81        0.0256
      6  C6        -9.2430    5.9700   -4.6620 C.ar    1  5P81        0.0414
      7  O7        -9.8320    4.3480   -2.9860 O.3     1  5P81       -0.4720
      8  C8        -9.7380    3.3610   -4.0260 C.3     1  5P81        0.1886
      9  C9       -10.5000    2.1010   -3.6140 C.3     1  5P81        0.0523
     10  C10       -8.2670    3.0130   -4.2600 C.ar    1  5P81        0.0238
     11  C11       -7.7440    3.0560   -5.5450 C.ar    1  5P81        0.0531
     12  C12       -6.4010    2.7640   -5.7570 C.ar    1  5P81        0.0066
     13  C13       -5.5840    2.4300   -4.6850 C.ar    1  5P81        0.0298
     14  C14       -6.1110    2.3870   -3.3960 C.ar    1  5P81        0.1399
     15  C15       -7.4540    2.6750   -3.1840 C.ar    1  5P81        0.0290
     16  N17      -11.2090    6.2470   -1.6460 N.pl3   1  5P81       -0.3402
     17  C18       -8.7350    7.7200   -6.2750 C.ar    1  5P81        0.0456
     18  C19       -8.7930    8.9120   -6.9820 C.ar    1  5P81        0.1470
     19  N20       -8.0080    8.7690   -8.0440 N.ar    1  5P81       -0.2394
     20  N21       -7.4870    7.6530   -8.0790 N.ar    1  5P81       -0.1713
     21  C22       -7.8760    6.9310   -7.0280 C.ar    1  5P81        0.1008
     22  C23       -9.5660   10.0480   -6.5760 C.1     1  5P81        0.1194
     23  N24      -10.1800   10.9530   -6.2590 N.1     1  5P81       -0.1893
     24  C25       -7.8010    9.8190   -9.0640 C.3     1  5P81        0.1545
     25  N26       -8.4740    4.5780   -7.2660 N.am    1  5P81       -0.2686
     26  C27       -8.6630    3.3780   -6.7210 C.2     1  5P81        0.2492
     27  C28       -7.4510    5.4910   -6.7330 C.3     1  5P81        0.1414
     28  C29       -9.3400    4.9040   -8.4070 C.3     1  5P81        0.1156
     29  O30       -9.5270    2.5860   -7.0910 O.2     1  5P81       -0.2699
     30  F16       -5.3200    2.0570   -2.3550 F       1  5P81       -0.2042
     31  HAA      -11.7210    6.9400   -1.1370 H       1  5P81        0.1438
     32  HAB      -11.1630    5.3080   -1.3030 H       1  5P81        0.1438
@<TRIPOS>BOND
     1    24    19    1
     2    28    25    1
     3    20    19   ar
     4    20    21   ar
     5    19    18   ar
     6    25    27    1
     7    25    26   am
     8    29    26    2
     9    21    27    1
    10    21    17   ar
    11    18    22    1
    12    18    17   ar
    13    26    11    1
    14    22    23    3
    15    17     5    1
    16    12    11   ar
    17    12    13   ar
    18    11    10   ar
    19     5     6   ar
    20     5     4   ar
    21    13    14   ar
    22     6     1   ar
    23     4     3   ar
    24    10     8    1
    25    10    15   ar
    26     8     9    1
    27     8     7    1
    28     1     7    1
    29     1     2   ar
    30    14    15   ar
    31    14    30    1
    32     3     2   ar
    33     2    16    1
    34    16    32    1
    35    16    31    1
