@<TRIPOS>MOLECULE
4eok_w_Lig.pdb
 33 36 0 0 0
SMALL
GASTEIGER

@<TRIPOS>ATOM
      1  N1       -13.3370   -4.6700    4.2650 N.2     1  4SP1       -0.3140
      2  C2       -14.1130   -5.6810    3.8470 C.cat   1  4SP1        0.3917
      3  N2       -14.1420   -6.8310    4.5210 N.pl3   1  4SP1       -0.2505
      4  N3       -14.8690   -5.5640    2.7470 N.2     1  4SP1        0.0125
      5  C4       -14.8700   -4.4250    2.0390 C.2     1  4SP1        0.3854
      6  C5       -14.0740   -3.3640    2.4510 C.3     1  4SP1        0.2754
      7  C6       -13.2990   -3.5120    3.5910 C.2     1  4SP1        0.2882
      8  O6       -12.4990   -2.4940    4.0090 O.2     1  4SP1       -0.4532
      9  N7       -14.2550   -2.3750    1.5780 N.pl3   1  4SP1       -0.2765
     10  C8       -15.1230   -2.7910    0.6600 C.2     1  4SP1        0.3020
     11  N9       -15.4990   -4.0400    0.9340 N.2     1  4SP1       -0.0153
     12  C10      -12.3570   -2.5360    5.4360 C.3     1  4SP1        0.2078
     13  C11      -11.5010   -1.3510    5.8890 C.3     1  4SP1        0.0438
     14  C12      -10.1190   -1.4020    5.2350 C.3     1  4SP1        0.0037
     15  C13       -9.2610   -0.2180    5.6840 C.3     1  4SP1        0.0001
     16  C14       -9.1120   -0.2150    7.2060 C.3     1  4SP1        0.0000
     17  C15      -10.4910   -0.1690    7.8700 C.3     1  4SP1        0.0001
     18  C16      -11.3450   -1.3520    7.4110 C.3     1  4SP1        0.0037
     19  C17      -13.4100   -7.0170    5.6160 C.ar    1  4SP1        0.0533
     20  C18      -12.5810   -6.0130    6.1080 C.ar    1  4SP1        0.0160
     21  C19      -11.8340   -6.2260    7.2600 C.ar    1  4SP1        0.0176
     22  C20      -11.9200   -7.4430    7.9300 C.ar    1  4SP1        0.0892
     23  C21      -12.7500   -8.4430    7.4440 C.ar    1  4SP1        0.0176
     24  C22      -13.4870   -8.2340    6.2850 C.ar    1  4SP1        0.0160
     25  S23      -11.0130   -7.7170    9.4020 S.O2    1  4SP1       -0.0237
     26  O24      -10.2520   -9.0070    9.2740 O.2     1  4SP1       -0.1851
     27  O25      -11.9780   -7.8510   10.5460 O.2     1  4SP1       -0.1851
     28  N26       -9.9870   -6.4770    9.6840 N.4     1  4SP1        0.4312
     29  HAA       -9.1260   -6.9830    9.6460 H       1  4SP1       -0.0539
     30  HAB       -9.8770   -6.1410   10.6190 H       1  4SP1       -0.0539
     31  HAC       -9.8210   -5.8860    8.8930 H       1  4SP1       -0.0539
     32  HAD      -14.7240   -7.5730    4.1910 H       1  4SP1        0.1582
     33  HAE      -13.8190   -1.4770    1.6120 H       1  4SP1        0.1513
@<TRIPOS>BOND
     1    10    11    2
     2    10     9    1
     3    11     5    1
     4     9    33    1
     5     9     6    1
     6     5     6    1
     7     5     4    2
     8     6     7    1
     9     4     2    1
    10     7     8    1
    11     7     1    2
    12     2     1    2
    13     2     3    1
    14     8    12    1
    15    32     3    1
    16     3    19    1
    17    14    15    1
    18    14    13    1
    19    12    13    1
    20    19    20   ar
    21    19    24   ar
    22    15    16    1
    23    13    18    1
    24    20    21   ar
    25    24    23   ar
    26    16    17    1
    27    21    22   ar
    28    18    17    1
    29    23    22   ar
    30    22    25    1
    31    31    28    1
    32    26    25    2
    33    25    28    1
    34    25    27    2
    35    29    28    1
    36    28    30    1
