C22H20N4OS
APtclcactv01172009273D 0   0.00000     0.00000     1
 
 48 51  0  0  0  0  0  0  0  0999 V2000
    9.5500   -8.0830   -7.4070 C   0  0  0  0  0  0  0  0  0  0  0  0
   10.1220   -8.1980   -6.1480 C   0  0  0  0  0  0  0  0  0  0  0  0
   10.5160   -9.3940   -5.6880 N   0  0  0  0  0  0  0  0  0  0  0  0
   10.3730  -10.4920   -6.4070 C   0  0  0  0  0  0  0  0  0  0  0  0
    9.8090  -10.4440   -7.6770 C   0  0  0  0  0  0  0  0  0  0  0  0
    9.3890   -9.2200   -8.1890 C   0  0  0  0  0  0  0  0  0  0  0  0
   10.0910   -2.0810   -3.9100 C   0  0  0  0  0  0  0  0  0  0  0  0
    9.7690   -2.9300   -4.9640 C   0  0  0  0  0  0  0  0  0  0  0  0
   10.0350   -4.2900   -4.8730 C   0  0  0  0  0  0  0  0  0  0  0  0
   10.6310   -4.7920   -3.7220 C   0  0  0  0  0  0  0  0  0  0  0  0
   10.9550   -3.9460   -2.6680 C   0  0  0  0  0  0  0  0  0  0  0  0
   10.6850   -2.5850   -2.7590 C   0  0  0  0  0  0  0  0  0  0  0  0
   11.0220   -6.0510   -3.2920 C   0  0  0  0  0  0  0  0  0  0  0  0
   11.5340   -5.8860   -2.0740 N   0  0  0  0  0  0  0  0  0  0  0  0
   11.4970   -4.7080   -1.7190 N   0  0  0  0  0  0  0  0  0  0  0  0
   10.8590   -7.1740   -4.0950 C   0  0  0  0  0  0  0  0  0  0  0  0
   10.2830   -7.0670   -5.3580 C   0  0  0  0  0  0  0  0  0  0  0  0
    8.0000   -0.3910   -3.9760 C   0  0  0  0  0  0  0  0  0  0  0  0
    7.3260   -1.5750   -3.7030 C   0  0  0  0  0  0  0  0  0  0  0  0
    5.9370   -1.5880   -3.6400 C   0  0  0  0  0  0  0  0  0  0  0  0
    5.2210   -0.4170   -3.8610 C   0  0  0  0  0  0  0  0  0  0  0  0
    5.8940    0.7660   -4.1470 C   0  0  0  0  0  0  0  0  0  0  0  0
    7.2840    0.7810   -4.1920 C   0  0  0  0  0  0  0  0  0  0  0  0
    9.7490   -0.3700   -4.0330 S   0  0  0  0  0  0  0  0  0  0  0  0
    8.0260    2.0840   -4.5010 C   0  0  0  0  0  0  0  0  0  0  0  0
    9.2540    2.1310   -4.4880 O   0  0  0  0  0  0  0  0  0  0  0  0
    7.2430    3.1310   -4.7550 N   0  0  0  0  0  0  0  0  0  0  0  0
    7.9110    4.4060   -5.0490 C   0  0  0  0  0  0  0  0  0  0  0  0
   11.9110   -6.5910   -1.4760 H   0  0  0  0  0  0  0  0  0  0  0  0
    6.2450    3.0770   -4.7480 H   0  0  0  0  0  0  0  0  0  0  0  0
    9.2265   -7.0976   -7.7824 H   0  0  0  0  0  0  0  0  0  0  0  0
   10.7197  -11.4357   -5.9533 H   0  0  0  0  0  0  0  0  0  0  0  0
    9.6961  -11.3662   -8.2714 H   0  0  0  0  0  0  0  0  0  0  0  0
    8.9381   -9.1525   -9.1933 H   0  0  0  0  0  0  0  0  0  0  0  0
    9.3007   -2.5230   -5.8759 H   0  0  0  0  0  0  0  0  0  0  0  0
    9.7756   -4.9645   -5.7063 H   0  0  0  0  0  0  0  0  0  0  0  0
   10.9401   -1.9103   -1.9245 H   0  0  0  0  0  0  0  0  0  0  0  0
   10.2881   -7.9365   -3.5155 H   0  0  0  0  0  0  0  0  0  0  0  0
   11.8515   -7.6698   -4.2059 H   0  0  0  0  0  0  0  0  0  0  0  0
    9.2917   -6.5678   -5.2517 H   0  0  0  0  0  0  0  0  0  0  0  0
   10.8539   -6.3080   -5.9421 H   0  0  0  0  0  0  0  0  0  0  0  0
    7.8942   -2.5056   -3.5361 H   0  0  0  0  0  0  0  0  0  0  0  0
    5.4034   -2.5267   -3.4148 H   0  0  0  0  0  0  0  0  0  0  0  0
    4.1192   -0.4265   -3.8094 H   0  0  0  0  0  0  0  0  0  0  0  0
    5.3257    1.6918   -4.3380 H   0  0  0  0  0  0  0  0  0  0  0  0
    8.6286    4.2649   -5.8907 H   0  0  0  0  0  0  0  0  0  0  0  0
    8.6128    4.6584   -4.2201 H   0  0  0  0  0  0  0  0  0  0  0  0
    7.2555    5.2825   -5.2616 H   0  0  0  0  0  0  0  0  0  0  0  0
  1  2  1  0  0  0  0
  1  6  2  0  0  0  0
  2  3  2  0  0  0  0
  2 17  1  0  0  0  0
  3  4  1  0  0  0  0
  4  5  2  0  0  0  0
  5  6  1  0  0  0  0
  7 12  2  0  0  0  0
  7  8  1  0  0  0  0
  7 24  1  0  0  0  0
  8  9  2  0  0  0  0
  9 10  1  0  0  0  0
 10 13  2  0  0  0  0
 10 11  1  0  0  0  0
 11 15  2  0  0  0  0
 11 12  1  0  0  0  0
 13 14  1  0  0  0  0
 13 16  1  0  0  0  0
 14 29  1  0  0  0  0
 14 15  1  0  0  0  0
 16 17  1  0  0  0  0
 18 19  1  0  0  0  0
 18 23  2  0  0  0  0
 18 24  1  0  0  0  0
 19 20  2  0  0  0  0
 20 21  1  0  0  0  0
 21 22  2  0  0  0  0
 22 23  1  0  0  0  0
 23 25  1  0  0  0  0
 25 26  2  0  0  0  0
 25 27  1  0  0  0  0
 27 30  1  0  0  0  0
 27 28  1  0  0  0  0
  1 31  1  0  0  0  0
  4 32  1  0  0  0  0
  5 33  1  0  0  0  0
  6 34  1  0  0  0  0
  8 35  1  0  0  0  0
  9 36  1  0  0  0  0
 12 37  1  0  0  0  0
 16 38  1  0  0  0  0
 16 39  1  0  0  0  0
 17 40  1  0  0  0  0
 17 41  1  0  0  0  0
 19 42  1  0  0  0  0
 20 43  1  0  0  0  0
 21 44  1  0  0  0  0
 22 45  1  0  0  0  0
 28 46  1  0  0  0  0
 28 47  1  0  0  0  0
 28 48  1  0  0  0  0
M  END
> <UNIQUE_SMILES>
CNC(=O)c1ccccc1Sc2ccc3c(CCc4ccccn4)[nH]nc3c2

$$$$
