@<TRIPOS>MOLECULE
1xh4_Lig.pdb
 37 40 0 0 0
SMALL
GASTEIGER

@<TRIPOS>ATOM
      1  N11       14.4020   24.2590   30.7110 N.ar    1  R691       -0.2423
      2  C12       14.2860   22.9300   30.7630 C.ar    1  R691        0.0990
      3  C13       13.0520   22.2830   30.6220 C.ar    1  R691        0.0252
      4  C14       11.8860   23.0360   30.3770 C.ar    1  R691        0.0581
      5  C15       12.0360   24.4380   30.2860 C.ar    1  R691        0.0252
      6  C16       13.3120   25.0040   30.4780 C.ar    1  R691        0.0990
      7  C21       10.5970   22.3480   30.1630 C.2     1  R691        0.2649
      8  O22       10.4770   21.1160   30.2560 O.2     1  R691       -0.2684
      9  N23        9.4840   23.1060   29.8090 N.am    1  R691       -0.2002
     10  C31        8.2370   22.5120   29.3400 C.3     1  R691        0.1328
     11  C32        8.0340   22.9900   27.8980 C.3     1  R691        0.1120
     12  N33        6.7050   22.4480   27.4340 N.3     1  R691       -0.2162
     13  C34        5.5070   23.3440   27.6050 C.3     1  R691        0.0888
     14  C35        4.9730   23.2960   29.0250 C.3     1  R691        0.0206
     15  C36        6.0280   23.8390   30.0020 C.3     1  R691        0.0250
     16  C37        7.1380   22.8470   30.4060 C.3     1  R691        0.1170
     17  N41        6.5560   21.5950   30.9730 N.am    1  R691       -0.2016
     18  C42        5.9010   21.5730   32.2130 C.2     1  R691        0.2648
     19  O43        5.9260   22.5290   33.0120 O.2     1  R691       -0.2684
     20  C51        5.0990   20.4040   32.5400 C.ar    1  R691        0.0550
     21  C52        4.7440   20.1480   33.8810 C.ar    1  R691        0.0047
     22  C53        3.9270   19.0680   34.2100 C.ar    1  R691        0.0033
     23  C54        3.5170   18.2050   33.1690 C.ar    1  R691        0.0391
     24  C55        3.8840   18.4530   31.8250 C.ar    1  R691        0.0033
     25  C56        4.6540   19.5510   31.5100 C.ar    1  R691        0.0047
     26  C61        2.6330   17.0780   33.4470 C.2     1  R691        0.1987
     27  O62        1.8300   17.2340   34.3920 O.2     1  R691       -0.2865
     28  C71        2.5290   15.9180   32.6200 C.ar    1  R691        0.0790
     29  C72        3.6050   15.0230   32.3090 C.ar    1  R691        0.1988
     30  C73        3.2750   13.9260   31.4340 C.ar    1  R691        0.0434
     31  C74        1.9990   13.7420   30.9360 C.ar    1  R691        0.0178
     32  C75        0.9520   14.6270   31.2730 C.ar    1  R691        0.0482
     33  C76        1.2470   15.6980   32.1010 C.ar    1  R691        0.0209
     34  O92        4.7990   15.1780   32.7580 O.3     1  R691       -0.2865
     35  N95       -0.3710   14.4470   30.7200 N.pl3   1  R691       -0.3041
     36  C98       -1.5140   15.2720   31.1550 C.3     1  R691        0.1122
     37  C99       -0.7470   13.1140   30.1970 C.3     1  R691        0.1122
@<TRIPOS>BOND
     1     1     6   ar
     2     1     2   ar
     3     2     3   ar
     4     3     4   ar
     5     4     5   ar
     6     4     7    1
     7     5     6   ar
     8     7     9   am
     9     7     8    2
    10     9    10    1
    11    10    11    1
    12    10    16    1
    13    11    12    1
    14    12    13    1
    15    13    14    1
    16    14    15    1
    17    15    16    1
    18    16    17    1
    19    17    18   am
    20    18    19    2
    21    18    20    1
    22    20    21   ar
    23    20    25   ar
    24    21    22   ar
    25    22    23   ar
    26    23    26    1
    27    23    24   ar
    28    24    25   ar
    29    26    27    2
    30    26    28    1
    31    28    29   ar
    32    28    33   ar
    33    29    30   ar
    34    29    34    1
    35    30    31   ar
    36    31    32   ar
    37    32    35    1
    38    32    33   ar
    39    35    36    1
    40    35    37    1
