@<TRIPOS>MOLECULE
3g0e_Lig.pdb
 22 24 0 0 0
SMALL
GASTEIGER

@<TRIPOS>ATOM
      1  C3        35.4800   -0.4750  -78.2400 C.3     1  B491        0.0328
      2  C4        30.4310   -1.0870  -77.3110 C.3     1  B491        0.0522
      3  C5        36.7490   -8.2550  -79.3610 C.ar    1  B491        0.0310
      4  C6        35.3630   -8.3330  -79.0510 C.ar    1  B491        0.0189
      5  C7        36.7290   -5.7850  -79.0920 C.ar    1  B491        0.0311
      6  C12       34.5760   -3.5460  -78.3710 C.2     1  B491        0.0234
      7  C13       34.1100   -1.0460  -78.0240 C.ar    1  B491        0.0014
      8  C14       31.8840   -1.2200  -77.6050 C.ar    1  B491        0.0635
      9  C15       37.4160   -6.9940  -79.3790 C.ar    1  B491        0.1402
     10  C16       34.6920   -7.1320  -78.7700 C.ar    1  B491        0.0739
     11  C17       35.3420   -5.8670  -78.7840 C.ar    1  B491        0.0221
     12  C18       33.7640   -2.3980  -78.0890 C.ar    1  B491        0.0773
     13  C19       32.9100   -0.2910  -77.7180 C.ar    1  B491        0.0677
     14  C20       34.2960   -4.8670  -78.4420 C.2     1  B491        0.0582
     15  C21       33.0150   -5.6470  -78.2330 C.2     1  B491        0.2691
     16  C22       32.8040    1.1740  -77.5610 C.2     1  B491        0.2851
     17  N23       32.4170   -2.4670  -77.8280 N.ar    1  B491       -0.2498
     18  N24       33.3450   -6.9850  -78.4480 N.am    1  B491       -0.1754
     19  N25       33.7330    1.7470  -76.7100 N.am    1  B491       -0.0837
     20  O27       31.9230   -5.2050  -77.9410 O.2     1  B491       -0.2680
     21  O28       31.9360    1.8230  -78.1530 O.2     1  B491       -0.2666
     22  F29       38.7250   -6.9540  -79.6720 F       1  B491       -0.2042
@<TRIPOS>BOND
     1     1     7    1
     2     2     8    1
     3     3     4   ar
     4     3     9   ar
     5     4    10   ar
     6     5     9   ar
     7     5    11   ar
     8     6    12    1
     9     6    14    2
    10     7    12   ar
    11     7    13   ar
    12     8    13   ar
    13     8    17   ar
    14     9    22    1
    15    10    18    1
    16    10    11   ar
    17    11    14    1
    18    12    17   ar
    19    13    16    1
    20    14    15    1
    21    15    18   am
    22    15    20    2
    23    16    19   am
    24    16    21    2
