@<TRIPOS>MOLECULE
4mxz_Lig.pdb
 36 39 0 0 0
SMALL
GASTEIGER

@<TRIPOS>ATOM
      1  CAA       10.9590  -40.4850   -5.0740 C.3     1  DB81        0.2526
      2  CAC       16.5580  -39.7590   -3.6310 C.3     1  DB81        0.0760
      3  CAG        9.4950  -33.7530   -8.6480 C.1     1  DB81        0.1033
      4  CAH       11.9990  -34.2900   -8.4650 C.ar    1  DB81        0.1104
      5  CAI        5.4970  -34.5420   -7.3350 C.ar    1  DB81        0.0272
      6  CAJ        7.5170  -35.7880   -9.1720 C.ar    1  DB81        0.0551
      7  CAK       14.0860  -37.0120   -6.6610 C.ar    1  DB81        0.0592
      8  CAL       11.2790  -38.0170   -6.1460 C.ar    1  DB81        0.0429
      9  CAM       17.2150  -38.7720   -4.5870 C.3     1  DB81        0.0646
     10  CAN       16.2580  -38.4840   -5.7420 C.3     1  DB81        0.2070
     11  CAO       20.5500  -40.8800    0.4190 C.3     1  DB81        0.0897
     12  CAP       17.2040  -39.9490   -1.1030 C.3     1  DB81        0.0897
     13  CAQ       18.9100  -39.7610   -2.7710 C.3     1  DB81        0.0897
     14  CAR       18.1740  -40.7830   -0.2370 C.3     1  DB81        0.0897
     15  CAS       19.8010  -40.6730   -1.9810 C.3     1  DB81        0.0897
     16  CAX        6.3100  -35.1030   -9.7260 C.ar    1  DB81        0.1505
     17  CAY        5.2960  -34.4780   -8.8040 C.ar    1  DB81        0.0924
     18  CAZ        6.6960  -35.2160   -6.7650 C.ar    1  DB81        0.0739
     19  NAD        8.6790  -33.0220   -8.9500 N.1     1  DB81       -0.1907
     20  NAT       13.1050  -35.0320   -7.9540 N.ar    1  DB81       -0.2429
     21  NAU        8.9140  -36.5110   -7.1880 N.pl3   1  DB81       -0.2107
     22  OAV       12.2150  -39.9120   -4.9170 O.3     1  DB81       -0.4684
     23  OAW       14.9810  -38.9540   -5.3970 O.3     1  DB81       -0.4723
     24  CBA       10.5750  -34.7170   -8.2600 C.ar    1  DB81        0.1027
     25  CBB        7.7200  -35.8440   -7.6830 C.ar    1  DB81        0.0841
     26  CBC       12.4690  -38.7630   -5.6250 C.ar    1  DB81        0.1725
     27  CBD       13.8580  -38.2700   -5.8810 C.ar    1  DB81        0.1737
     28  CBE       10.2720  -35.9900   -7.4730 C.ar    1  DB81        0.0831
     29  CBF       12.8970  -36.2380   -7.2000 C.ar    1  DB81        0.0858
     30  CBG       11.4900  -36.7550   -6.9360 C.ar    1  DB81        0.0368
     31  NBH       17.5250  -40.1050   -2.5300 N.3     1  DB81       -0.2702
     32  NBI       19.5520  -40.4990   -0.5760 N.3     1  DB81       -0.2691
     33 CL1         3.8810  -33.6760   -9.3940 Cl      1  DB81       -0.0791
     34 CL2         6.8270  -35.2340   -5.0320 Cl      1  DB81       -0.0809
     35  C01        7.3100  -34.9370  -11.8780 C.3     1  DB81        0.2525
     36  O02        6.1670  -35.0660  -11.0910 O.3     1  DB81       -0.4705
@<TRIPOS>BOND
     1     1    22    1
     2     2     9    1
     3     2    31    1
     4     3    24    1
     5     3    19    3
     6     4    20   ar
     7     4    24   ar
     8     5    17   ar
     9     5    18   ar
    10     6    16   ar
    11     6    25   ar
    12     7    27   ar
    13     7    29   ar
    14     8    26   ar
    15     8    30   ar
    16     9    10    1
    17    10    23    1
    18    11    32    1
    19    12    14    1
    20    12    31    1
    21    13    15    1
    22    13    31    1
    23    14    32    1
    24    15    32    1
    25    16    17   ar
    26    16    36    1
    27    17    33    1
    28    18    25   ar
    29    18    34    1
    30    20    29   ar
    31    21    25    1
    32    21    28    1
    33    22    26    1
    34    23    27    1
    35    24    28   ar
    36    26    27   ar
    37    28    30   ar
    38    29    30   ar
    39    35    36    1
