@<TRIPOS>MOLECULE
5ap0_Lig.pdb
 33 37 0 0 0
SMALL
GASTEIGER

@<TRIPOS>ATOM
      1  N          0.5460   11.3330  -18.7530 N.2     1  A5U1       -0.1777
      2  C          0.6140   11.4810  -17.3790 C.1     1  A5U1        0.1135
      3  O         -2.8270   15.9450  -18.0020 O.2     1  A5U1       -0.2520
      4  C1        -0.7050   13.3030  -17.3420 C.3     1  A5U1        0.2309
      5  N1         0.0260   12.4520  -16.6030 N.2     1  A5U1       -0.1814
      6  O1         1.1650    7.9450  -15.5570 O.3     1  A5U1       -0.4700
      7  C2        -0.8660   13.2240  -18.7590 C.2     1  A5U1        0.0948
      8  N2        -1.7200   14.2580  -19.1490 N.am    1  A5U1       -0.2400
      9  O2         2.5420    9.7890  -11.4130 O.3     1  A5U1       -0.4790
     10  C3        -0.2060   12.2150  -19.4200 C.2     1  A5U1        0.1249
     11  N3        -1.4500   14.3940  -16.8860 N.am    1  A5U1       -0.2421
     12  C4        -2.0900   14.9910  -18.0040 C.2     1  A5U1        0.3124
     13  N4         1.3470   10.4800  -16.7780 N.pl3   1  A5U1       -0.1430
     14  C5        -1.5440   14.8660  -15.4980 C.3     1  A5U1        0.0789
     15  N5         0.6960   10.2710   -7.6980 N.3     1  A5U1       -0.2713
     16  C6        -2.0660   13.7770  -14.5530 C.3     1  A5U1        0.0199
     17  C7        -1.4040   14.0110  -13.1970 C.3     1  A5U1        0.0018
     18  C8        -0.2530   14.9890  -13.4210 C.3     1  A5U1        0.0018
     19  C9        -0.1740   15.2540  -14.9210 C.3     1  A5U1        0.0199
     20  C10       -2.1870   14.5570  -20.4880 C.3     1  A5U1        0.1215
     21  C11        1.6090   10.2850  -15.4100 C.ar    1  A5U1        0.1156
     22  C12        1.9560   11.3860  -14.6160 C.ar    1  A5U1        0.0235
     23  C13        2.2370   11.2150  -13.2730 C.ar    1  A5U1        0.0385
     24  C14        2.1780    9.9320  -12.7180 C.ar    1  A5U1        0.1415
     25  C15        1.8240    8.8380  -13.4760 C.ar    1  A5U1        0.0751
     26  C16        1.5410    9.0290  -14.8180 C.ar    1  A5U1        0.1576
     27  C17        2.1670    6.9660  -15.6410 C.3     1  A5U1        0.2525
     28  C18        1.8120   10.4910  -10.4350 C.3     1  A5U1        0.1687
     29  C19        0.5810    9.6250  -10.1480 C.3     1  A5U1        0.0609
     30  C20       -0.1520   10.1750   -8.9110 C.3     1  A5U1        0.0758
     31  C21        1.8970   11.0810   -7.9990 C.3     1  A5U1        0.0758
     32  C22        2.7030   10.5430   -9.1860 C.3     1  A5U1        0.0609
     33  C23       -0.0420   10.7960   -6.5220 C.3     1  A5U1        0.0896
@<TRIPOS>BOND
     1     1     2    2
     2     1    10    1
     3     2    13    1
     4     2     5    2
     5     3    12    2
     6     4     5    1
     7     4     7    1
     8     4    11    1
     9     6    27    1
    10     6    26    1
    11     7    10    2
    12     7     8    1
    13     8    20    1
    14     8    12   am
    15     9    28    1
    16     9    24    1
    17    11    14    1
    18    11    12   am
    19    13    21    1
    20    14    16    1
    21    14    19    1
    22    15    30    1
    23    15    33    1
    24    15    31    1
    25    16    17    1
    26    17    18    1
    27    18    19    1
    28    21    22   ar
    29    21    26   ar
    30    22    23   ar
    31    23    24   ar
    32    24    25   ar
    33    25    26   ar
    34    28    29    1
    35    28    32    1
    36    29    30    1
    37    31    32    1
