@<TRIPOS>MOLECULE
5ap1_Lig.pdb
 32 35 0 0 0
SMALL
GASTEIGER

@<TRIPOS>ATOM
      1  N         -3.7420  -15.2170  -52.0910 N.ar    1  O381       -0.2473
      2  C         -4.5450  -14.7130  -53.2010 C.3     1  O381        0.1538
      3  O         -2.5940  -19.0980  -51.8330 O.3     1  O381       -0.4592
      4  C1        -3.4830  -16.5460  -51.8240 C.ar    1  O381        0.0968
      5  N1        -3.1600  -14.3830  -51.1950 N.ar    1  O381       -0.1676
      6  C2        -2.6880  -16.5540  -50.6860 C.ar    1  O381        0.0425
      7  N2        -0.5240  -20.8770  -47.7820 N.pl3   1  O381       -0.1834
      8  C3        -2.5110  -15.1890  -50.3280 C.ar    1  O381        0.1217
      9  N3         3.6010  -20.8750  -42.5660 N.1     1  O381       -0.1951
     10  C4        -2.1480  -17.6760  -49.9790 C.ar    1  O381        0.0372
     11  N4         1.7950  -18.4750  -44.4910 N.pl3   1  O381       -0.2141
     12  C5        -1.6700  -17.5080  -48.6790 C.ar    1  O381        0.0044
     13  N5         0.6210  -19.6370  -46.1320 N.2     1  O381       -0.3719
     14  C6        -1.1520  -18.5620  -47.9610 C.ar    1  O381        0.0168
     15  N6         0.2040  -20.2980  -53.0150 N.1     1  O381       -0.1920
     16  C7        -1.0940  -19.8370  -48.5350 C.ar    1  O381        0.0761
     17  C8         0.2760  -20.8310  -46.6580 C.2     1  O381        0.2044
     18  C9         0.7110  -22.0780  -46.1490 C.2     1  O381        0.0465
     19  C10        1.5570  -22.0750  -45.0770 C.2     1  O381        0.0011
     20  C11        1.9570  -20.8740  -44.5130 C.3     1  O381        0.1812
     21  C12        2.8600  -20.8790  -43.4410 C.1     1  O381        0.0853
     22  C13        1.4590  -19.6670  -45.0540 C.2     1  O381        0.1955
     23  C14        1.3020  -17.1980  -44.9970 C.3     1  O381        0.0947
     24  C15        0.0090  -16.8110  -44.2690 C.3     1  O381        0.0216
     25  C16       -0.4800  -15.4270  -44.6730 C.3     1  O381        0.0018
     26  C17        0.5970  -14.3900  -44.3980 C.3     1  O381        0.0001
     27  C18        1.8580  -14.7340  -45.1730 C.3     1  O381        0.0018
     28  C19        2.3630  -16.1130  -44.7800 C.3     1  O381        0.0216
     29  C20       -1.5650  -20.0280  -49.8190 C.ar    1  O381        0.0535
     30  C21       -2.0900  -18.9440  -50.5360 C.ar    1  O381        0.1414
     31  C22       -2.3520  -20.3150  -52.5400 C.3     1  O381        0.3090
     32  C23       -0.9240  -20.3070  -52.8030 C.1     1  O381        0.1218
@<TRIPOS>BOND
     1     1     2    1
     2     1     4   ar
     3     1     5   ar
     4     3    30    1
     5     3    31    1
     6     4     6   ar
     7     5     8   ar
     8     6     8   ar
     9     6    10    1
    10     7    17    1
    11     7    16    1
    12     9    21    3
    13    10    12   ar
    14    10    30   ar
    15    11    23    1
    16    11    22    1
    17    12    14   ar
    18    13    22    2
    19    13    17    2
    20    14    16   ar
    21    15    32    3
    22    16    29   ar
    23    17    18    1
    24    18    19    2
    25    19    20    1
    26    20    21    1
    27    20    22    1
    28    23    24    1
    29    23    28    1
    30    24    25    1
    31    25    26    1
    32    26    27    1
    33    27    28    1
    34    29    30   ar
    35    31    32    1
