@<TRIPOS>MOLECULE
5ap2_Lig.pdb
 35 39 0 0 0
SMALL
GASTEIGER

@<TRIPOS>ATOM
      1  N         -0.0590  -32.4480  -10.1820 N.2     1  PWU1       -0.0603
      2  C          1.4010  -32.5310  -12.1020 C.ar    1  PWU1        0.0450
      3  O          3.0720  -36.1370  -14.3070 O.2     1  PWU1       -0.2227
      4  C1         0.6730  -31.8640  -11.1360 C.3     1  PWU1        0.2907
      5  N1         2.1360  -34.4280  -13.1010 N.ar    1  PWU1       -0.2475
      6  O1         1.7360  -36.6060  -12.5560 O.3     1  PWU1       -0.4362
      7  C2        -0.0960  -33.7830  -10.1530 C.2     1  PWU1        0.3430
      8  N2         4.1890  -32.9460  -16.9860 N.ar    1  PWU1       -0.2473
      9  C3         0.5940  -34.5820  -11.0630 C.3     1  PWU1        0.1649
     10  N3         5.0690  -33.8820  -16.4910 N.ar    1  PWU1       -0.1675
     11  C4         1.3420  -33.9350  -12.0380 C.ar    1  PWU1        0.0596
     12  N4        -0.8800  -34.3300   -9.1580 N.pl3   1  PWU1       -0.0097
     13  C5         2.6600  -33.3440  -13.8010 C.ar    1  PWU1        0.0723
     14  N5        -2.8400  -40.2950   -7.1300 N.ar    1  PWU1       -0.3128
     15  C6         2.2360  -32.1900  -13.2170 C.ar    1  PWU1        0.0190
     16  N6        -1.7960  -42.0630   -8.0640 N.ar    1  PWU1       -0.2294
     17  C7         3.4900  -33.3980  -14.9660 C.ar    1  PWU1        0.0559
     18  C8         3.2400  -32.6400  -16.0940 C.ar    1  PWU1        0.0981
     19  C9         4.6380  -34.1480  -15.2710 C.ar    1  PWU1        0.1231
     20  C10        4.3480  -32.4130  -18.3330 C.3     1  PWU1        0.1538
     21  C11        2.3700  -35.7780  -13.3960 C.2     1  PWU1        0.4208
     22  C12        1.8740  -38.0450  -12.8120 C.3     1  PWU1        0.1709
     23  C13        2.2760  -38.6900  -11.5280 C.3     1  PWU1        0.0474
     24  C14        0.5630  -38.5350  -13.3300 C.3     1  PWU1        0.0474
     25  C15       -1.1340  -35.6850   -8.8770 C.ar    1  PWU1        0.1831
     26  C16       -1.0420  -36.6360   -9.8820 C.ar    1  PWU1        0.0444
     27  C17       -1.2900  -37.9670   -9.6070 C.ar    1  PWU1        0.0051
     28  C18       -1.6340  -38.3750   -8.3240 C.ar    1  PWU1        0.0176
     29  C19       -1.7260  -37.4170   -7.3220 C.ar    1  PWU1        0.0051
     30  C20       -1.4790  -36.0850   -7.5940 C.ar    1  PWU1        0.0444
     31  C21       -1.8910  -39.7990   -8.0330 C.ar    1  PWU1        0.0802
     32  C22       -2.7200  -41.6670   -7.2100 C.ar    1  PWU1        0.1208
     33  C23       -1.2590  -40.9210   -8.5960 C.ar    1  PWU1        0.1173
     34  C24       -3.5670  -42.5800   -6.4040 C.3     1  PWU1        0.0718
     35  C25       -3.7630  -39.5430   -6.2760 C.3     1  PWU1        0.1316
@<TRIPOS>BOND
     1     1     4    1
     2     1     7    2
     3     2     4    1
     4     2    11   ar
     5     2    15   ar
     6     3    21    2
     7     5    11   ar
     8     5    13   ar
     9     5    21   am
    10     6    22    1
    11     6    21    1
    12     7    12    1
    13     7     9    1
    14     8    18   ar
    15     8    20    1
    16     8    10   ar
    17     9    11    1
    18    10    19   ar
    19    12    25    1
    20    13    15   ar
    21    13    17    1
    22    14    35    1
    23    14    31   ar
    24    14    32   ar
    25    16    32   ar
    26    16    33   ar
    27    17    18   ar
    28    17    19   ar
    29    22    23    1
    30    22    24    1
    31    25    26   ar
    32    25    30   ar
    33    26    27   ar
    34    27    28   ar
    35    28    31    1
    36    28    29   ar
    37    29    30   ar
    38    31    33   ar
    39    32    34    1
