@<TRIPOS>MOLECULE
5em7_Lig_B.pdb
 33 36 0 0 0
SMALL
GASTEIGER

@<TRIPOS>ATOM
      1  C1       -49.7110   -1.1880  -11.2030 C.3     1  5Q41        0.0897
      2  N2       -50.0830   -0.9390  -12.6050 N.3     1  5Q41       -0.2686
      3  C3       -51.4330   -0.3510  -12.6920 C.3     1  5Q41        0.0938
      4  C4       -51.8270   -0.2460  -14.1720 C.3     1  5Q41        0.1081
      5  N5       -50.8280    0.5310  -14.9510 N.pl3   1  5Q41       -0.3046
      6  C6       -49.4240    0.0680  -14.7800 C.3     1  5Q41        0.1081
      7  C7       -49.0560   -0.1250  -13.2960 C.3     1  5Q41        0.0938
      8  C8       -51.2530    0.6660  -16.2970 C.ar    1  5Q41        0.0480
      9  C9       -52.2290    1.6250  -16.6070 C.ar    1  5Q41        0.0159
     10  C10      -52.7040    1.7560  -17.9060 C.ar    1  5Q41        0.0179
     11  C11      -52.2240    0.9360  -18.9350 C.ar    1  5Q41        0.0738
     12  C12      -51.2640   -0.0400  -18.6310 C.ar    1  5Q41        0.0179
     13  C13      -50.7880   -0.1750  -17.3290 C.ar    1  5Q41        0.0159
     14  N14      -52.7950    1.1280  -20.2160 N.am    1  5Q41       -0.1753
     15  C15      -52.5820    0.4810  -21.3970 C.2     1  5Q41        0.2749
     16  O16      -51.7690   -0.4230  -21.4400 O.2     1  5Q41       -0.2678
     17  C17      -53.3700    0.8480  -22.6140 C.ar    1  5Q41        0.1264
     18  C18      -53.1550    0.2210  -23.8920 C.ar    1  5Q41        0.0811
     19  C19      -53.9620    0.6190  -24.9940 C.ar    1  5Q41        0.0353
     20  C20      -54.9270    1.5560  -24.8610 C.ar    1  5Q41        0.0761
     21  N21      -55.1370    2.1560  -23.6620 N.ar    1  5Q41       -0.3197
     22  C23      -54.4130    1.8440  -22.5590 C.ar    1  5Q41        0.2634
     23  O24      -54.6880    2.4540  -21.5370 O.2     1  5Q41       -0.2670
     24  N25      -52.1740   -0.7510  -24.0770 N.pl3   1  5Q41       -0.2091
     25  C26      -52.0180   -1.5790  -25.2110 C.ar    1  5Q41        0.1043
     26  C27      -51.5910   -1.0340  -26.4320 C.ar    1  5Q41        0.0196
     27  C28      -51.4340   -1.8440  -27.5520 C.ar    1  5Q41        0.0015
     28  C29      -51.6470   -3.2160  -27.4540 C.ar    1  5Q41        0.0032
     29  C30      -52.0360   -3.7770  -26.2400 C.ar    1  5Q41        0.0382
     30  C31      -52.2040   -2.9740  -25.1050 C.ar    1  5Q41        0.1538
     31  O32      -52.6060   -3.5420  -23.9260 O.3     1  5Q41       -0.4701
     32  C33      -51.6200   -4.0780  -23.0330 C.3     1  5Q41        0.2525
     33  H22      -55.8300    2.8320  -23.5970 H       1  5Q41        0.1690
@<TRIPOS>BOND
     1     1     2    1
     2     2     3    1
     3     2     7    1
     4     3     4    1
     5     4     5    1
     6     5     6    1
     7     5     8    1
     8     6     7    1
     9     8     9   ar
    10     8    13   ar
    11     9    10   ar
    12    10    11   ar
    13    11    12   ar
    14    11    14    1
    15    12    13   ar
    16    14    15   am
    17    15    16    2
    18    15    17    1
    19    17    18   ar
    20    17    22   ar
    21    18    19   ar
    22    18    24    1
    23    19    20   ar
    24    20    21   ar
    25    21    22   ar
    26    21    33    1
    27    22    23    2
    28    24    25    1
    29    25    26   ar
    30    25    30   ar
    31    26    27   ar
    32    27    28   ar
    33    28    29   ar
    34    29    30   ar
    35    30    31    1
    36    31    32    1
