@<TRIPOS>MOLECULE
4cli_w_Lig.pdb
 32 35 0 0 0
SMALL
GASTEIGER

@<TRIPOS>ATOM
      1  C1        -9.6890    5.2330   -3.4990 C.ar    1  5P81        0.1698
      2  C2       -10.3460    6.1410   -2.6770 C.ar    1  5P81        0.1597
      3  N3       -10.4770    7.4210   -3.0410 N.ar    1  5P81       -0.2265
      4  C4        -9.9860    7.8610   -4.1820 C.ar    1  5P81        0.1006
      5  C5        -9.3170    7.0120   -5.0530 C.ar    1  5P81        0.0256
      6  C6        -9.1650    5.6740   -4.7110 C.ar    1  5P81        0.0414
      7  O7        -9.5750    3.9400   -3.0960 O.3     1  5P81       -0.4720
      8  C8        -9.5570    3.0310   -4.2070 C.3     1  5P81        0.1886
      9  C9       -10.2730    1.7330   -3.8210 C.3     1  5P81        0.0523
     10  C10       -8.1070    2.7210   -4.5850 C.ar    1  5P81        0.0238
     11  C11       -7.6960    2.8250   -5.9060 C.ar    1  5P81        0.0531
     12  C12       -6.3770    2.5640   -6.2510 C.ar    1  5P81        0.0066
     13  C13       -5.4660    2.1890   -5.2710 C.ar    1  5P81        0.0298
     14  C14       -5.8760    2.0860   -3.9470 C.ar    1  5P81        0.1399
     15  C15       -7.1950    2.3510   -3.6000 C.ar    1  5P81        0.0290
     16  N17      -10.8440    5.7240   -1.5160 N.pl3   1  5P81       -0.3402
     17  C18       -8.8320    7.5160   -6.2540 C.ar    1  5P81        0.0456
     18  C19       -8.9590    8.7440   -6.8860 C.ar    1  5P81        0.1470
     19  N20       -8.2460    8.6770   -8.0080 N.ar    1  5P81       -0.2394
     20  N21       -7.7110    7.5760   -8.1420 N.ar    1  5P81       -0.1713
     21  C22       -8.0110    6.7900   -7.1070 C.ar    1  5P81        0.1008
     22  C23       -9.7560    9.8250   -6.3910 C.1     1  5P81        0.1194
     23  N24      -10.3930   10.6890   -6.0090 N.1     1  5P81       -0.1893
     24  C25       -8.1140    9.7890   -8.9750 C.3     1  5P81        0.1545
     25  N26       -8.5850    4.4430   -7.4600 N.am    1  5P81       -0.2686
     26  C27       -8.7080    3.2030   -6.9890 C.2     1  5P81        0.2492
     27  C28       -7.5470    5.3430   -6.9330 C.3     1  5P81        0.1414
     28  C29       -9.5360    4.8190   -8.5190 C.3     1  5P81        0.1156
     29  O30       -9.5690    2.4060   -7.3630 O.2     1  5P81       -0.2699
     30  F16       -4.9890    1.7290   -2.9940 F       1  5P81       -0.2042
     31  HAA      -11.3220    6.3710   -0.9170 H       1  5P81        0.1438
     32  HAB      -10.7380    4.7700   -1.2350 H       1  5P81        0.1438
@<TRIPOS>BOND
     1    24    19    1
     2    28    25    1
     3    20    19   ar
     4    20    21   ar
     5    19    18   ar
     6    25    26   am
     7    25    27    1
     8    29    26    2
     9    21    27    1
    10    21    17   ar
    11    26    11    1
    12    18    22    1
    13    18    17   ar
    14    22    23    3
    15    17     5    1
    16    12    11   ar
    17    12    13   ar
    18    11    10   ar
    19    13    14   ar
    20     5     6   ar
    21     5     4   ar
    22     6     1   ar
    23    10     8    1
    24    10    15   ar
    25     8     9    1
    26     8     7    1
    27     4     3   ar
    28    14    15   ar
    29    14    30    1
    30     1     7    1
    31     1     2   ar
    32     3     2   ar
    33     2    16    1
    34    16    32    1
    35    16    31    1
