@<TRIPOS>MOLECULE
4twp_w_Lig.pdb
 30 33 0 0 0
SMALL
GASTEIGER

@<TRIPOS>ATOM
      1  C01        9.7170   -6.8190   -8.0180 C.ar    1  AXI1        0.0191
      2  C02       10.1400   -7.3480   -6.8020 C.ar    1  AXI1        0.0814
      3  N03       10.4480   -8.6490   -6.6960 N.ar    1  AXI1       -0.2438
      4  C04       10.3600   -9.4640   -7.7300 C.ar    1  AXI1        0.0988
      5  C05        9.9430   -8.9990   -8.9720 C.ar    1  AXI1        0.0207
      6  C06        9.6140   -7.6560   -9.1210 C.ar    1  AXI1        0.0031
      7  C07       10.0660   -2.2900   -2.6520 C.ar    1  AXI1        0.0310
      8  C08        9.8690   -2.7070   -3.9650 C.ar    1  AXI1        0.0066
      9  C09       10.0640   -4.0380   -4.3150 C.ar    1  AXI1        0.0035
     10  C10       10.4560   -4.9480   -3.3430 C.ar    1  AXI1        0.0364
     11  C11       10.6500   -4.5420   -2.0320 C.ar    1  AXI1        0.1026
     12  C12       10.4540   -3.2070   -1.6810 C.ar    1  AXI1        0.0274
     13  C13       10.7450   -6.3060   -3.3270 C.ar    1  AXI1        0.0754
     14  N14       11.0770   -6.6030   -2.0740 N.ar    1  AXI1       -0.2757
     15  N15       11.0280   -5.6160   -1.3380 N.ar    1  AXI1       -0.1726
     16  C16       10.6370   -7.0850   -4.4730 C.2     1  AXI1        0.0200
     17  C17       10.2320   -6.5290   -5.6810 C.2     1  AXI1        0.0206
     18  C18        8.3670   -0.1990   -2.9670 C.ar    1  AXI1        0.0338
     19  C19        7.4780   -1.2010   -3.3460 C.ar    1  AXI1        0.0066
     20  C20        6.2650   -0.8650   -3.9340 C.ar    1  AXI1        0.0005
     21  C21        5.9380    0.4660   -4.1460 C.ar    1  AXI1        0.0002
     22  C22        6.8250    1.4710   -3.7720 C.ar    1  AXI1        0.0050
     23  C23        8.0400    1.1350   -3.1820 C.ar    1  AXI1        0.0593
     24  S24        9.8990   -0.6020   -2.2200 S.3     1  AXI1       -0.0867
     25  C80        9.0230    2.2360   -2.7750 C.2     1  AXI1        0.2464
     26  O81       10.0900    1.9570   -2.2240 O.2     1  AXI1       -0.2701
     27  N82        8.6400    3.4750   -3.0660 N.am    1  AXI1       -0.2991
     28  C88        9.5590    4.5600   -2.6890 C.3     1  AXI1        0.1109
     29  HAA       11.3560   -7.4960   -1.7200 H       1  AXI1        0.1889
     30  HAB        7.7740    3.6880   -3.5230 H       1  AXI1        0.1498
@<TRIPOS>BOND
     1     6     5   ar
     2     6     1   ar
     3     5     4   ar
     4     1     2   ar
     5     4     3   ar
     6     2     3   ar
     7     2    17    1
     8    17    16    2
     9    16    13    1
    10     9     8   ar
    11     9    10   ar
    12    21    20   ar
    13    21    22   ar
    14     8     7   ar
    15    20    19   ar
    16    22    23   ar
    17    30    27    1
    18    19    18   ar
    19    10    13   ar
    20    10    11   ar
    21    13    14   ar
    22    23    18   ar
    23    23    25    1
    24    27    25   am
    25    27    28    1
    26    18    24    1
    27    25    26    2
    28     7    24    1
    29     7    12   ar
    30    14    29    1
    31    14    15   ar
    32    11    12   ar
    33    11    15   ar
