@<TRIPOS>MOLECULE
4wa9_w_Lig.pdb
 30 33 0 0 0
SMALL
GASTEIGER

@<TRIPOS>ATOM
      1  C01        9.5500   -8.0830   -7.4070 C.ar    1  AXI1        0.0191
      2  C02       10.1220   -8.1980   -6.1480 C.ar    1  AXI1        0.0814
      3  N03       10.5160   -9.3940   -5.6880 N.ar    1  AXI1       -0.2438
      4  C04       10.3730  -10.4920   -6.4070 C.ar    1  AXI1        0.0988
      5  C05        9.8090  -10.4440   -7.6770 C.ar    1  AXI1        0.0207
      6  C06        9.3890   -9.2200   -8.1890 C.ar    1  AXI1        0.0031
      7  C07       10.0910   -2.0810   -3.9100 C.ar    1  AXI1        0.0310
      8  C08        9.7690   -2.9300   -4.9640 C.ar    1  AXI1        0.0066
      9  C09       10.0350   -4.2900   -4.8730 C.ar    1  AXI1        0.0035
     10  C10       10.6310   -4.7920   -3.7220 C.ar    1  AXI1        0.0364
     11  C11       10.9550   -3.9460   -2.6680 C.ar    1  AXI1        0.1026
     12  C12       10.6850   -2.5850   -2.7590 C.ar    1  AXI1        0.0274
     13  C13       11.0220   -6.0510   -3.2920 C.ar    1  AXI1        0.0754
     14  N14       11.5340   -5.8860   -2.0740 N.ar    1  AXI1       -0.2757
     15  N15       11.4970   -4.7080   -1.7190 N.ar    1  AXI1       -0.1726
     16  C16       10.8590   -7.1740   -4.0950 C.2     1  AXI1        0.0200
     17  C17       10.2830   -7.0670   -5.3580 C.2     1  AXI1        0.0206
     18  C18        8.0000   -0.3910   -3.9760 C.ar    1  AXI1        0.0338
     19  C19        7.3260   -1.5750   -3.7030 C.ar    1  AXI1        0.0066
     20  C20        5.9370   -1.5880   -3.6400 C.ar    1  AXI1        0.0005
     21  C21        5.2210   -0.4170   -3.8610 C.ar    1  AXI1        0.0002
     22  C22        5.8940    0.7660   -4.1470 C.ar    1  AXI1        0.0050
     23  C23        7.2840    0.7810   -4.1920 C.ar    1  AXI1        0.0593
     24  S24        9.7490   -0.3700   -4.0330 S.3     1  AXI1       -0.0867
     25  C80        8.0260    2.0840   -4.5010 C.2     1  AXI1        0.2464
     26  O81        9.2540    2.1310   -4.4880 O.2     1  AXI1       -0.2701
     27  N82        7.2430    3.1310   -4.7550 N.am    1  AXI1       -0.2991
     28  C88        7.9110    4.4060   -5.0490 C.3     1  AXI1        0.1109
     29  HAA       11.9110   -6.5910   -1.4760 H       1  AXI1        0.1889
     30  HAB        6.2450    3.0770   -4.7480 H       1  AXI1        0.1498
@<TRIPOS>BOND
     1     6     5   ar
     2     6     1   ar
     3     5     4   ar
     4     1     2   ar
     5     4     3   ar
     6     2     3   ar
     7     2    17    1
     8    17    16    2
     9    28    27    1
    10     8     9   ar
    11     8     7   ar
    12     9    10   ar
    13    27    30    1
    14    27    25   am
    15    25    26    2
    16    25    23    1
    17    23    22   ar
    18    23    18   ar
    19    22    21   ar
    20    16    13    1
    21    24    18    1
    22    24     7    1
    23    18    19   ar
    24     7    12   ar
    25    21    20   ar
    26    10    13   ar
    27    10    11   ar
    28    19    20   ar
    29    13    14   ar
    30    12    11   ar
    31    11    15   ar
    32    14    15   ar
    33    14    29    1
