@<TRIPOS>MOLECULE
5cav_w_Lig.pdb
 36 39 0 0 0
SMALL
GASTEIGER

@<TRIPOS>ATOM
      1  C1         8.1490    6.9400   10.2610 C.3     1  4ZQ1        0.0400
      2  C2         7.7600    5.8150    9.3000 C.3     1  4ZQ1        0.1667
      3  C3         8.3640    6.0920    7.9240 C.ar    1  4ZQ1        0.1475
      4  N4         8.7950    7.2760    7.4940 N.ar    1  4ZQ1       -0.2269
      5  C5         9.2460    7.0990    6.2560 C.ar    1  4ZQ1        0.1176
      6  C6         9.8080    7.9690    5.3270 C.ar    1  4ZQ1        0.1208
      7  N7        10.1770    7.5340    4.1410 N.ar    1  4ZQ1       -0.2274
      8  C8        10.0390    6.2480    3.7780 C.ar    1  4ZQ1        0.1348
      9  C9         9.4920    5.3220    4.6550 C.ar    1  4ZQ1        0.0532
     10  C10        9.0840    5.7620    5.9140 C.ar    1  4ZQ1        0.0832
     11  N11        8.5360    5.1770    6.9740 N.ar    1  4ZQ1       -0.3067
     12  C12        8.1210    3.7720    7.0900 C.3     1  4ZQ1        0.1816
     13  C13        7.5890    3.2800    5.7430 C.3     1  4ZQ1        0.0336
     14  C14        9.2950    2.9230    7.5770 C.3     1  4ZQ1        0.4161
     15  N18       10.4260    5.9150    2.5460 N.pl3   1  4ZQ1       -0.2832
     16  C19       10.3480    4.6820    2.0530 C.ar    1  4ZQ1        0.1377
     17  C20       10.7730    4.4790    0.7450 C.ar    1  4ZQ1        0.0552
     18  C21       10.6960    3.2050    0.2010 C.ar    1  4ZQ1        0.1047
     19  N22       10.2290    2.2170    0.9420 N.ar    1  4ZQ1       -0.2120
     20  C23        9.8220    2.4230    2.2010 C.ar    1  4ZQ1        0.2214
     21  N24        9.8800    3.6420    2.7590 N.ar    1  4ZQ1       -0.1985
     22  N25        9.3400    1.3270    2.9260 N.pl3   1  4ZQ1       -0.2752
     23  C26        8.9050    1.4680    4.3320 C.3     1  4ZQ1        0.0963
     24  C27        9.5870    0.3960    5.1760 C.3     1  4ZQ1        0.0539
     25  C28        9.3450   -0.9980    4.5960 C.3     1  4ZQ1        0.1511
     26  C29        9.9530   -1.0480    3.1920 C.3     1  4ZQ1        0.2075
     27  C30        9.2820   -0.0080    2.2920 C.3     1  4ZQ1        0.1313
     28  O32        9.9780   -1.9830    5.4230 O.3     1  4ZQ1       -0.3507
     29  C33        9.3980   -1.9520    6.7300 C.3     1  4ZQ1        0.1741
     30  O34        6.3370    5.7120    9.1840 O.3     1  4ZQ1       -0.3770
     31  F15        9.7250    3.3850    8.7470 F       1  4ZQ1       -0.1680
     32  F16        8.9000    1.6630    7.7240 F       1  4ZQ1       -0.1680
     33  F17       10.2840    2.9740    6.6920 F       1  4ZQ1       -0.1680
     34  F31       11.3200   -0.8140    3.2540 F       1  4ZQ1       -0.2328
     35  HAA        5.9530    6.6160    8.9870 H       1  4ZQ1        0.2109
     36  HAB       10.8010    6.6360    1.9590 H       1  4ZQ1        0.1550
@<TRIPOS>BOND
     1    18    17   ar
     2    18    19   ar
     3    17    16   ar
     4    19    20   ar
     5    36    15    1
     6    16    15    1
     7    16    21   ar
     8    20    21   ar
     9    20    22    1
    10    27    22    1
    11    27    26    1
    12    15     8    1
    13    22    23    1
    14    26    34    1
    15    26    25    1
    16     8     7   ar
    17     8     9   ar
    18     7     6   ar
    19    23    24    1
    20    25    24    1
    21    25    28    1
    22     9    10   ar
    23     6     5   ar
    24    28    29    1
    25    13    12    1
    26    10     5   ar
    27    10    11   ar
    28     5     4   ar
    29    33    14    1
    30    11    12    1
    31    11     3   ar
    32    12    14    1
    33     4     3   ar
    34    14    32    1
    35    14    31    1
    36     3     2    1
    37    35    30    1
    38    30     2    1
    39     2     1    1
