@<TRIPOS>MOLECULE
5em8_w_Lig.pdb
 36 39 0 0 0
SMALL
GASTEIGER

@<TRIPOS>ATOM
      1  C1         6.6050   10.8050   14.1120 C.3     1  5Q41       -0.1005
      2  N2         7.0110   10.1060   12.8860 N.4     1  5Q41        0.3878
      3  C3         6.7520   10.9490   11.7130 C.3     1  5Q41       -0.0556
      4  C4         7.1580   10.1900   10.4470 C.3     1  5Q41        0.0680
      5  N5         8.5920    9.8630   10.5030 N.pl3   1  5Q41       -0.3118
      6  C6         8.8720    9.0480   11.6930 C.3     1  5Q41        0.0680
      7  C7         8.4500    9.8070   12.9510 C.3     1  5Q41       -0.0556
      8  C8         8.9270    9.1810    9.4120 C.ar    1  5Q41        0.0478
      9  C9         8.3590    7.9370    9.1710 C.ar    1  5Q41        0.0158
     10  C10        8.6960    7.2290    8.0230 C.ar    1  5Q41        0.0159
     11  C11        9.6020    7.7660    7.1140 C.ar    1  5Q41        0.0506
     12  C12       10.1690    9.0110    7.3570 C.ar    1  5Q41        0.0159
     13  C13        9.8330    9.7190    8.5050 C.ar    1  5Q41        0.0158
     14  N14        9.9350    7.0920    6.0140 N.am    1  5Q41       -0.2802
     15  C15        9.3930    5.8990    5.7760 C.2     1  5Q41        0.2554
     16  O16        8.5780    5.3510    6.5140 O.2     1  5Q41       -0.2696
     17  C17        9.8550    5.2250    4.4820 C.ar    1  5Q41        0.1228
     18  C18        9.5090    3.9000    4.2410 C.ar    1  5Q41        0.0589
     19  C19        9.9270    3.2810    3.0670 C.ar    1  5Q41        0.0334
     20  C20       10.6880    3.9750    2.1310 C.ar    1  5Q41        0.0760
     21  N21       11.0340    5.3100    2.3740 N.ar    1  5Q41       -0.3197
     22  C23       10.6110    5.9340    3.5550 C.ar    1  5Q41        0.2633
     23  O24       10.9080    7.1080    3.7600 O.2     1  5Q41       -0.2670
     24  N25        8.7790    3.2490    5.1420 N.pl3   1  5Q41       -0.3099
     25  C26        8.4010    1.9820    4.9830 C.ar    1  5Q41        0.0828
     26  C27        8.7570    1.2520    3.8550 C.ar    1  5Q41        0.0177
     27  C28        8.3420   -0.0680    3.7100 C.ar    1  5Q41        0.0015
     28  C29        7.5740   -0.6640    4.7040 C.ar    1  5Q41        0.0032
     29  C30        7.2260    0.0600    5.8390 C.ar    1  5Q41        0.0382
     30  C31        7.6360    1.3800    5.9750 C.ar    1  5Q41        0.1520
     31  O32        7.2960    2.0860    7.0870 O.3     1  5Q41       -0.4702
     32  C33        8.3040    1.9250    8.0890 C.3     1  5Q41        0.2525
     33  HAA        6.5030    9.2490   12.7970 H       1  5Q41       -0.0797
     34  HAB       10.5970    7.4980    5.3880 H       1  5Q41        0.1552
     35  HAC       11.5760    5.8160    1.7050 H       1  5Q41        0.1690
     36  HAD        8.4850    3.7310    5.9660 H       1  5Q41        0.1523
@<TRIPOS>BOND
     1    35    21    1
     2    20    21   ar
     3    20    19   ar
     4    21    22   ar
     5    19    18   ar
     6    22    23    2
     7    22    17   ar
     8    27    26   ar
     9    27    28   ar
    10    26    25   ar
    11    18    17   ar
    12    18    24    1
    13    17    15    1
    14    28    29   ar
    15    25    24    1
    16    25    30   ar
    17    24    36    1
    18    34    14    1
    19    15    14   am
    20    15    16    2
    21    29    30   ar
    22    30    31    1
    23    14    11    1
    24    31    32    1
    25    11    12   ar
    26    11    10   ar
    27    12    13   ar
    28    10     9   ar
    29    13     8   ar
    30     9     8   ar
    31     8     5    1
    32     4     5    1
    33     4     3    1
    34     5     6    1
    35     6     7    1
    36     3     2    1
    37    33     2    1
    38     2     7    1
    39     2     1    1
