@<TRIPOS>MOLECULE
2ito_Lig.pdb
 31 34 0 0 0
SMALL
GASTEIGER

@<TRIPOS>ATOM
      1  CAA      -51.1650    2.4870  -16.1950 C.3     1  IRE1        0.2526
      2  CAD      -51.1890   -0.5850  -26.6740 C.ar    1  IRE1        0.0318
      3  CAE      -51.1030   -0.6820  -25.2800 C.ar    1  IRE1        0.0189
      4  CAG      -50.9250    1.7140  -25.1330 C.ar    1  IRE1        0.0302
      5  CAH      -52.1950    1.8590  -18.8390 C.ar    1  IRE1        0.0593
      6  CAI      -50.3990    0.4370  -20.3940 C.ar    1  IRE1        0.0444
      7  CAJ      -48.2760   -2.4690  -17.8210 C.3     1  IRE1        0.0646
      8  CAK      -48.8310   -1.4830  -18.8750 C.3     1  IRE1        0.2070
      9  CAL      -44.4060   -3.5920  -15.0750 C.3     1  IRE1        0.1595
     10  CAM      -44.0750   -4.8660  -17.1340 C.3     1  IRE1        0.1595
     11  CAN      -46.7510   -2.3190  -17.7170 C.3     1  IRE1        0.0761
     12  CAO      -45.4800   -2.7160  -15.7450 C.3     1  IRE1        0.1046
     13  CAP      -45.2550   -4.1730  -17.8460 C.3     1  IRE1        0.1046
     14  CAW      -51.1410    0.6670  -27.2930 C.ar    1  IRE1        0.1507
     15  CAX      -51.0070    1.8060  -26.5120 C.ar    1  IRE1        0.0863
     16  CAY      -50.9780    0.4720  -24.5090 C.ar    1  IRE1        0.0731
     17  CAZ      -51.1310    1.2010  -18.2160 C.ar    1  IRE1        0.1739
     18  NAS      -50.8760    0.4060  -23.1830 N.pl3   1  IRE1       -0.1940
     19  OAT      -50.9480    1.2280  -16.8510 O.3     1  IRE1       -0.4683
     20  OAU      -43.4570   -4.0220  -16.1080 O.3     1  IRE1       -0.3508
     21  OAV      -49.1940   -0.1540  -18.3610 O.3     1  IRE1       -0.4724
     22  CBA      -50.2350    0.4780  -19.0000 C.ar    1  IRE1        0.1724
     23  NBE      -46.1310   -3.3930  -16.9140 N.3     1  IRE1       -0.2683
     24 CL        -50.9430    3.3600  -27.2400 Cl      1  IRE1       -0.0799
     25  N1       -52.7310    1.7450  -22.9050 N.ar    1  IRE1       -0.2072
     26  C2       -53.5590    2.4110  -22.1310 C.ar    1  IRE1        0.2001
     27  N3       -53.3700    2.4460  -20.8190 N.ar    1  IRE1       -0.2238
     28  C4       -52.3520    1.8070  -20.2220 C.ar    1  IRE1        0.0890
     29  C5       -51.4580    1.1010  -21.0030 C.ar    1  IRE1        0.0543
     30  C6       -51.6810    1.0850  -22.3780 C.ar    1  IRE1        0.1550
     31  FAB      -51.2180    0.7930  -28.6340 F       1  IRE1       -0.2033
@<TRIPOS>BOND
     1     1    19    1
     2     2     3   ar
     3     2    14   ar
     4     3    16   ar
     5     4    15   ar
     6     4    16   ar
     7     5    28   ar
     8     5    17   ar
     9     6    29   ar
    10     6    22   ar
    11     7     8    1
    12     7    11    1
    13     8    21    1
    14     9    20    1
    15     9    12    1
    16    10    13    1
    17    10    20    1
    18    11    23    1
    19    12    23    1
    20    13    23    1
    21    14    31    1
    22    14    15   ar
    23    15    24    1
    24    16    18    1
    25    17    19    1
    26    17    22   ar
    27    18    30    1
    28    21    22    1
    29    25    30   ar
    30    25    26   ar
    31    26    27   ar
    32    27    28   ar
    33    28    29   ar
    34    29    30   ar
