@<TRIPOS>MOLECULE
2itp_Lig.pdb
 33 37 0 0 0
SMALL
GASTEIGER

@<TRIPOS>ATOM
      1  CAA      -50.5150   -1.9410   -8.9750 C.3     1  AEE1        0.0188
      2  CAB      -51.2500   -2.0690  -25.3010 C.3     1  AEE1        0.0283
      3  CAC      -51.8640    2.3520  -27.7840 C.ar    1  AEE1       -0.0000
      4  CAD      -51.3600    2.5610  -26.4940 C.ar    1  AEE1       -0.0003
      5  CAE      -52.4400    1.1210  -28.1590 C.ar    1  AEE1       -0.0003
      6  CAG      -51.4470    1.5000  -25.5840 C.ar    1  AEE1       -0.0026
      7  CAH      -52.5420    0.0670  -27.2480 C.ar    1  AEE1       -0.0026
      8  CAI      -50.9130    0.8550  -15.9060 C.ar    1  AEE1       -0.0032
      9  CAJ      -49.5910   -0.8370  -17.0350 C.ar    1  AEE1       -0.0032
     10  CAK      -51.5930    1.1200  -17.0980 C.ar    1  AEE1       -0.0024
     11  CAL      -50.2700   -0.5710  -18.2180 C.ar    1  AEE1       -0.0024
     12  CAM      -51.5900    0.1700  -20.6560 C.2     1  AEE1        0.0081
     13  CAN      -50.3550   -2.7930  -10.2580 C.3     1  AEE1        0.0722
     14  CAO      -49.5610   -0.7780  -11.4520 C.3     1  AEE1        0.0897
     15  CAP      -49.0080   -3.0800  -12.3420 C.3     1  AEE1        0.0897
     16  CAQ      -50.6230   -0.5830  -12.5610 C.3     1  AEE1        0.0899
     17  CAR      -49.7880   -2.7090  -13.6360 C.3     1  AEE1        0.0899
     18  CAS      -49.1930   -0.4480  -14.5800 C.3     1  AEE1        0.0992
     19  CAX      -49.9080   -0.1170  -15.8880 C.ar    1  AEE1       -0.0062
     20  CAY      -51.2600    0.4100  -18.2610 C.ar    1  AEE1        0.0040
     21  CAZ      -52.0290    0.2630  -25.9540 C.ar    1  AEE1       -0.0026
     22  NAV      -51.7500   -0.3020  -23.6120 N.pl3   1  AEE1       -0.2175
     23  NAW      -53.0900    1.3230  -19.5730 N.2     1  AEE1       -0.2455
     24  CBA      -51.9420    0.6390  -19.4570 C.3     1  AEE1        0.1493
     25  CBE      -52.1210   -0.8630  -24.9160 C.3     1  AEE1        0.1163
     26  NBF      -49.3020   -2.2240  -11.1470 N.3     1  AEE1       -0.2703
     27  NBG      -50.1890   -1.2670  -13.8070 N.3     1  AEE1       -0.2665
     28  N1       -53.7350    0.9560  -23.5300 N.ar    1  AEE1       -0.2074
     29  C2       -54.6330    1.6530  -22.8450 C.ar    1  AEE1        0.2015
     30  N3       -54.4940    1.8370  -21.5270 N.ar    1  AEE1       -0.2051
     31  C4       -53.4470    1.3140  -20.8530 C.ar    1  AEE1        0.1627
     32  C5       -52.4940    0.5780  -21.5400 C.ar    1  AEE1        0.0665
     33  C6       -52.6520    0.4060  -22.9160 C.ar    1  AEE1        0.1522
@<TRIPOS>BOND
     1     1    13    1
     2     2    25    1
     3     3     5   ar
     4     3     4   ar
     5     4     6   ar
     6     5     7   ar
     7     6    21   ar
     8     7    21   ar
     9     8    10   ar
    10     8    19   ar
    11     9    11   ar
    12     9    19   ar
    13    10    20   ar
    14    11    20   ar
    15    12    32    2
    16    12    24    1
    17    13    26    1
    18    14    26    1
    19    14    16    1
    20    15    17    1
    21    15    26    1
    22    16    27    1
    23    17    27    1
    24    18    19    1
    25    18    27    1
    26    20    24    1
    27    21    25    1
    28    22    25    1
    29    22    33    1
    30    23    31    2
    31    23    24    1
    32    28    33   ar
    33    28    29   ar
    34    29    30   ar
    35    30    31   ar
    36    31    32   ar
    37    32    33   ar
