@<TRIPOS>MOLECULE
2ity_Lig.pdb
 31 34 0 0 0
SMALL
GASTEIGER

@<TRIPOS>ATOM
      1  CAA      -51.8800    1.5010  -16.6950 C.3     1  IRE1        0.2526
      2  CAD      -52.3660   -1.6850  -27.0980 C.ar    1  IRE1        0.0318
      3  CAE      -52.2700   -1.6270  -25.7050 C.ar    1  IRE1        0.0189
      4  CAG      -52.1700    0.7900  -25.8000 C.ar    1  IRE1        0.0302
      5  CAH      -52.9420    1.0520  -19.2100 C.ar    1  IRE1        0.0593
      6  CAI      -51.3720   -0.4090  -20.9680 C.ar    1  IRE1        0.0444
      7  CAJ      -48.6050   -3.3750  -18.8720 C.3     1  IRE1        0.0646
      8  CAK      -49.3370   -2.1730  -19.9370 C.3     1  IRE1        0.2070
      9  CAL      -43.8270   -3.4930  -16.9960 C.3     1  IRE1        0.1595
     10  CAM      -43.9940   -3.9060  -19.3500 C.3     1  IRE1        0.1595
     11  CAN      -47.4070   -2.6730  -18.0340 C.3     1  IRE1        0.0761
     12  CAO      -45.3040   -2.9970  -16.8970 C.3     1  IRE1        0.1046
     13  CAP      -45.4960   -3.4890  -19.3580 C.3     1  IRE1        0.1046
     14  CAW      -52.3590   -0.4990  -27.8370 C.ar    1  IRE1        0.1507
     15  CAX      -52.2600    0.7300  -27.1910 C.ar    1  IRE1        0.0863
     16  CAY      -52.1840   -0.3870  -25.0470 C.ar    1  IRE1        0.0731
     17  CAZ      -51.8510    0.3220  -18.7380 C.ar    1  IRE1        0.1739
     18  NAS      -52.0740   -0.3550  -23.7040 N.pl3   1  IRE1       -0.1940
     19  OAT      -51.5280    0.2890  -17.4160 O.3     1  IRE1       -0.4683
     20  OAU      -43.2200   -3.2470  -18.3060 O.3     1  IRE1       -0.3508
     21  OAV      -50.0110   -1.1150  -19.0520 O.3     1  IRE1       -0.4724
     22  CBA      -51.0590   -0.4110  -19.6070 C.ar    1  IRE1        0.1724
     23  NBE      -46.1610   -3.4980  -18.0110 N.3     1  IRE1       -0.2683
     24 CL        -52.2640    2.1910  -28.1230 Cl      1  IRE1       -0.0799
     25  N1       -53.8690    1.0820  -23.2060 N.ar    1  IRE1       -0.2072
     26  C2       -54.5850    1.7670  -22.3190 C.ar    1  IRE1        0.2001
     27  N3       -54.2870    1.7660  -21.0240 N.ar    1  IRE1       -0.2238
     28  C4       -53.2450    1.0570  -20.5630 C.ar    1  IRE1        0.0890
     29  C5       -52.4640    0.3240  -21.4520 C.ar    1  IRE1        0.0543
     30  C6       -52.8030    0.3520  -22.8180 C.ar    1  IRE1        0.1550
     31  FAB      -52.4480   -0.5200  -29.1770 F       1  IRE1       -0.2033
@<TRIPOS>BOND
     1     1    19    1
     2     2     3   ar
     3     2    14   ar
     4     3    16   ar
     5     4    15   ar
     6     4    16   ar
     7     5    28   ar
     8     5    17   ar
     9     6    29   ar
    10     6    22   ar
    11     7     8    1
    12     7    11    1
    13     8    21    1
    14     9    20    1
    15     9    12    1
    16    10    13    1
    17    10    20    1
    18    11    23    1
    19    12    23    1
    20    13    23    1
    21    14    31    1
    22    14    15   ar
    23    15    24    1
    24    16    18    1
    25    17    19    1
    26    17    22   ar
    27    18    30    1
    28    21    22    1
    29    25    30   ar
    30    25    26   ar
    31    26    27   ar
    32    27    28   ar
    33    28    29   ar
    34    29    30   ar
