@<TRIPOS>MOLECULE
2itz_Lig.pdb
 31 34 0 0 0
SMALL
GASTEIGER

@<TRIPOS>ATOM
      1  CAA      -52.6820    1.4130  -17.0980 C.3     1  IRE1        0.2526
      2  CAD      -52.8180   -1.9870  -27.5250 C.ar    1  IRE1        0.0318
      3  CAE      -52.7350   -2.0260  -26.1310 C.ar    1  IRE1        0.0189
      4  CAG      -52.7020    0.4180  -26.0960 C.ar    1  IRE1        0.0302
      5  CAH      -53.6120    1.0440  -19.8070 C.ar    1  IRE1        0.0593
      6  CAI      -52.0670   -0.6040  -21.4190 C.ar    1  IRE1        0.0444
      7  CAJ      -49.9770   -3.2790  -19.7290 C.3     1  IRE1        0.0646
      8  CAK      -50.1290   -2.0010  -20.5060 C.3     1  IRE1        0.2070
      9  CAL      -46.7890   -5.5260  -17.0320 C.3     1  IRE1        0.1595
     10  CAM      -48.3210   -6.6560  -18.6930 C.3     1  IRE1        0.1595
     11  CAN      -49.0970   -2.9790  -18.5090 C.3     1  IRE1        0.0761
     12  CAO      -47.1980   -4.1360  -17.5700 C.3     1  IRE1        0.1046
     13  CAP      -48.6940   -5.2500  -19.1760 C.3     1  IRE1        0.1046
     14  CAW      -52.8460   -0.7480  -28.1910 C.ar    1  IRE1        0.1507
     15  CAX      -52.7880    0.4480  -27.4880 C.ar    1  IRE1        0.0863
     16  CAY      -52.6790   -0.8110  -25.4190 C.ar    1  IRE1        0.0731
     17  CAZ      -52.5420    0.3110  -19.2520 C.ar    1  IRE1        0.1739
     18  NAS      -52.6120   -0.8090  -24.0850 N.pl3   1  IRE1       -0.1940
     19  OAT      -52.1660    0.3310  -17.9350 O.3     1  IRE1       -0.4683
     20  OAU      -47.0140   -6.6360  -18.0000 O.3     1  IRE1       -0.3508
     21  OAV      -50.7680   -1.1820  -19.5140 O.3     1  IRE1       -0.4724
     22  CBA      -51.7890   -0.5000  -20.0660 C.ar    1  IRE1        0.1724
     23  NBE      -48.5890   -4.2690  -18.0560 N.3     1  IRE1       -0.2683
     24 CL        -52.8460    1.9560  -28.3460 Cl      1  IRE1       -0.0799
     25  N1       -54.4370    0.7190  -23.8420 N.ar    1  IRE1       -0.2072
     26  C2       -55.1550    1.4940  -23.0500 C.ar    1  IRE1        0.2001
     27  N3       -54.8960    1.6160  -21.7510 N.ar    1  IRE1       -0.2238
     28  C4       -53.8940    0.9450  -21.1770 C.ar    1  IRE1        0.0890
     29  C5       -53.1160    0.1170  -21.9750 C.ar    1  IRE1        0.0543
     30  C6       -53.3960    0.0080  -23.3370 C.ar    1  IRE1        0.1550
     31  FAB      -52.9230   -0.6730  -29.5270 F       1  IRE1       -0.2033
@<TRIPOS>BOND
     1     1    19    1
     2     2     3   ar
     3     2    14   ar
     4     3    16   ar
     5     4    15   ar
     6     4    16   ar
     7     5    28   ar
     8     5    17   ar
     9     6    29   ar
    10     6    22   ar
    11     7     8    1
    12     7    11    1
    13     8    21    1
    14     9    20    1
    15     9    12    1
    16    10    13    1
    17    10    20    1
    18    11    23    1
    19    12    23    1
    20    13    23    1
    21    14    31    1
    22    14    15   ar
    23    15    24    1
    24    16    18    1
    25    17    19    1
    26    17    22   ar
    27    18    30    1
    28    21    22    1
    29    25    30   ar
    30    25    26   ar
    31    26    27   ar
    32    27    28   ar
    33    28    29   ar
    34    29    30   ar
