@<TRIPOS>MOLECULE
2z60_Lig.pdb
 28 31 0 0 0
SMALL
GASTEIGER

@<TRIPOS>ATOM
      1  C1        17.6720   -4.1120   12.0080 C.3     1  P3Y1        0.2525
      2  N1        16.5060   -9.2590    8.3320 N.2     1  P3Y1       -0.0311
      3  O1        17.7490   -5.5430   11.8760 O.3     1  P3Y1       -0.4714
      4  C2        17.2470   -8.4830    7.4880 C.2     1  P3Y1        0.2320
      5  C3        18.1980   -7.5600    7.9830 C.2     1  P3Y1        0.0307
      6  C4        18.3460   -7.4790    9.3900 C.3     1  P3Y1        0.0645
      7  C5        17.5490   -8.3090   10.2520 C.2     1  P3Y1        0.0744
      8  C6        16.6440   -9.1800    9.6830 C.2     1  P3Y1        0.3720
      9  C9        17.4640   -8.4560   11.6670 C.2     1  P3Y1        0.0535
     10  C10       16.4730   -9.4440   11.7990 C.2     1  P3Y1        0.2359
     11  N11       15.9650   -9.8960   10.6090 N.2     1  P3Y1       -0.0308
     12  C14       18.2100   -7.7730   12.7840 C.ar    1  P3Y1        0.0376
     13  C15       18.3520   -6.3410   12.8870 C.ar    1  P3Y1        0.1387
     14  C16       19.0910   -5.7890   14.0020 C.ar    1  P3Y1        0.0369
     15  C17       19.6640   -6.6250   14.9760 C.ar    1  P3Y1        0.0031
     16  C18       19.5160   -8.0170   14.8690 C.ar    1  P3Y1        0.0002
     17  C19       18.8000   -8.5850   13.7850 C.ar    1  P3Y1        0.0031
     18  C24       19.0080   -6.7250    7.0540 C.ar    1  P3Y1        0.0194
     19  C25       19.2180   -5.3330    7.2550 C.ar    1  P3Y1        0.0987
     20  N26       19.9670   -4.5750    6.3890 N.ar    1  P3Y1       -0.2422
     21  C27       20.5360   -5.1640    5.2910 C.ar    1  P3Y1        0.1034
     22  C28       20.3730   -6.5440    5.0260 C.ar    1  P3Y1        0.0727
     23  C29       19.6030   -7.3100    5.9250 C.ar    1  P3Y1        0.0074
     24  C33       21.0130   -7.1580    3.8420 C.2     1  P3Y1        0.2506
     25  O34       22.2250   -7.4060    3.8850 O.2     1  P3Y1       -0.2699
     26  N35       20.2490   -7.4680    2.6990 N.am    1  P3Y1       -0.2725
     27  C41       18.7740   -7.4760    2.6120 C.3     1  P3Y1        0.1152
     28  C45       21.0070   -7.9270    1.5160 C.3     1  P3Y1        0.1152
@<TRIPOS>BOND
     1     1     3    1
     2     2     4    1
     3     2     8    2
     4     3    13    1
     5     4     5    2
     6     5     6    1
     7     5    18    1
     8     6     7    1
     9     7     8    1
    10     7     9    2
    11     8    11    1
    12     9    10    1
    13     9    12    1
    14    10    11    2
    15    12    13   ar
    16    12    17   ar
    17    13    14   ar
    18    14    15   ar
    19    15    16   ar
    20    16    17   ar
    21    18    19   ar
    22    18    23   ar
    23    19    20   ar
    24    20    21   ar
    25    21    22   ar
    26    22    23   ar
    27    22    24    1
    28    24    25    2
    29    24    26   am
    30    26    27    1
    31    26    28    1
