@<TRIPOS>MOLECULE
3w2r_Lig.pdb
 40 44 0 0 0
SMALL
GASTEIGER

@<TRIPOS>ATOM
      1 CL1         7.4610   11.4160   43.4250 Cl      1  W2R1       -0.0790
      2  C1         5.4560   16.1160   46.4940 C.ar    1  W2R1        0.0045
      3  C2         4.5280   16.9110   45.8490 C.ar    1  W2R1        0.0169
      4  C3         4.6750   10.7990   46.8950 C.ar    1  W2R1        0.0197
      5  C4         5.7160   14.8610   45.9700 C.ar    1  W2R1        0.0376
      6  C5         4.5450   11.9180   46.1060 C.ar    1  W2R1        0.0397
      7  C6         8.1300    5.2950   49.6710 C.ar    1  W2R1        0.0394
      8  C7         4.1270   15.2310   44.1940 C.ar    1  W2R1        0.0541
      9  C8         6.5170   10.0600   45.5680 C.ar    1  W2R1        0.0310
     10  C9         6.7800    5.0150   49.6240 C.ar    1  W2R1        0.0777
     11  C10        9.3050    8.3340   48.1570 C.ar    1  W2R1        0.2002
     12  C11        8.3420    6.5280   49.0090 C.ar    1  W2R1        0.1031
     13  C12        7.1150    6.9990   48.5740 C.ar    1  W2R1        0.1117
     14  C13        3.8620   16.4740   44.7190 C.ar    1  W2R1        0.0780
     15  C14        5.6630    9.8700   46.6410 C.ar    1  W2R1        0.0732
     16  C15        5.0560   14.4370   44.8300 C.ar    1  W2R1        0.1466
     17  C16        5.4080   12.1030   45.0460 C.ar    1  W2R1        0.1558
     18  C17        6.3930   11.1810   44.7670 C.ar    1  W2R1        0.0934
     19  C18        7.0290    8.1880   47.8800 C.ar    1  W2R1        0.1709
     20  C19        2.1950   17.1610   42.9610 C.2     1  W2R1        0.3434
     21  C20       -0.7060   19.6670   39.2140 C.3     1  W2R1        0.0001
     22  C21       -1.4180   19.3690   40.5060 C.3     1  W2R1        0.0018
     23  C22        0.4580   18.6950   39.0020 C.3     1  W2R1        0.0018
     24  C23       -0.4180   19.4270   41.6450 C.3     1  W2R1        0.0217
     25  C24        1.4260   18.7470   40.1680 C.3     1  W2R1        0.0217
     26  C25        0.6770   18.4010   41.4380 C.3     1  W2R1        0.0970
     27  C26        4.7550    6.0500   48.7010 C.3     1  W2R1        0.1382
     28  C27        3.9410    6.6060   49.8330 C.3     1  W2R1        0.1667
     29  C28        2.3010    9.6130   49.5660 C.3     1  W2R1        0.2140
     30  C29        3.0480    8.6650   50.4530 C.3     1  W2R1        0.1777
     31  N30        9.4960    7.1960   48.8190 N.ar    1  W2R1       -0.2224
     32  N31        8.1730    8.8550   47.6800 N.ar    1  W2R1       -0.2057
     33  N32        6.1830    6.0500   48.9590 N.ar    1  W2R1       -0.3200
     34  N33        5.7890    8.7040   47.4220 N.pl3   1  W2R1       -0.1928
     35  N34        2.9300   17.3440   44.1180 N.am    1  W2R1       -0.1609
     36  N35        1.5540   18.3230   42.5940 N.am    1  W2R1       -0.1887
     37  O36        2.0300   16.1120   42.3630 O.2     1  W2R1       -0.2488
     38  O37        1.5420    8.8190   48.6810 O.3     1  W2R1       -0.2176
     39  O38        5.3030   13.2140   44.2270 O.3     1  W2R1       -0.4526
     40  O39        4.0050    8.0080   49.6250 O.3     1  W2R1       -0.3489
@<TRIPOS>BOND
     1     1    18    1
     2     2     3   ar
     3     2     5   ar
     4     3    14   ar
     5     4     6   ar
     6     4    15   ar
     7     5    16   ar
     8     6    17   ar
     9     7    10   ar
    10     7    12   ar
    11     8    14   ar
    12     8    16   ar
    13     9    15   ar
    14     9    18   ar
    15    10    33   ar
    16    11    31   ar
    17    11    32   ar
    18    12    13   ar
    19    12    31   ar
    20    13    19   ar
    21    13    33   ar
    22    14    35    1
    23    15    34    1
    24    16    39    1
    25    17    18   ar
    26    17    39    1
    27    19    32   ar
    28    19    34    1
    29    20    35   am
    30    20    36   am
    31    20    37    2
    32    21    22    1
    33    21    23    1
    34    22    24    1
    35    23    25    1
    36    24    26    1
    37    25    26    1
    38    26    36    1
    39    27    28    1
    40    27    33    1
    41    28    40    1
    42    29    30    1
    43    29    38    1
    44    30    40    1
