@<TRIPOS>MOLECULE
4wa9_Lig.pdb
 28 31 0 0 0
SMALL
GASTEIGER

@<TRIPOS>ATOM
      1  C01       26.8710  124.6810    9.8590 C.ar    1  AXI1        0.0191
      2  C02       27.2380  124.0220   11.0240 C.ar    1  AXI1        0.0814
      3  N03       27.8850  122.8410   10.9660 N.ar    1  AXI1       -0.2438
      4  C04       28.1970  122.2510    9.7900 C.ar    1  AXI1        0.0988
      5  C05       27.8500  122.8780    8.6010 C.ar    1  AXI1        0.0207
      6  C06       27.1890  124.0980    8.6300 C.ar    1  AXI1        0.0031
      7  C07       24.9600  127.2190   17.0740 C.ar    1  AXI1        0.0310
      8  C08       24.8620  127.3260   15.6720 C.ar    1  AXI1        0.0066
      9  C09       25.5300  126.3970   14.8310 C.ar    1  AXI1        0.0036
     10  C10       26.3050  125.3570   15.4380 C.ar    1  AXI1        0.0388
     11  C11       26.3980  125.2720   16.8160 C.ar    1  AXI1        0.1048
     12  C12       25.7140  126.2090   17.6660 C.ar    1  AXI1        0.0274
     13  C13       27.0970  124.2770   14.9060 C.ar    1  AXI1        0.1044
     14  N14       27.6060  123.5990   15.9540 N.ar    1  AXI1       -0.1479
     15  N15       27.1840  124.1780   17.1260 N.ar    1  AXI1       -0.1479
     16  C16       27.3390  123.8990   13.4720 C.2     1  AXI1        0.0225
     17  C17       26.9370  124.6180   12.3720 C.2     1  AXI1        0.0207
     18  C18       22.3890  128.3520   17.6750 C.ar    1  AXI1        0.0339
     19  C19       21.8930  127.3390   16.8620 C.ar    1  AXI1        0.0066
     20  C20       20.5410  127.3240   16.4900 C.ar    1  AXI1        0.0005
     21  C21       19.7020  128.3450   16.9480 C.ar    1  AXI1        0.0002
     22  C22       20.2050  129.3620   17.7580 C.ar    1  AXI1        0.0051
     23  C23       21.5500  129.3810   18.1230 C.ar    1  AXI1        0.0610
     24  S24       24.1140  128.3820   18.1480 S.3     1  AXI1       -0.0867
     25  C80       22.0790  130.4640   19.0140 C.2     1  AXI1        0.2653
     26  O81       22.6350  130.1790   20.0690 O.2     1  AXI1       -0.2684
     27  N82       21.9110  131.8420   18.6780 N.am    1  AXI1       -0.1998
     28  C88       22.4140  132.8630   19.5840 C.3     1  AXI1        0.1388
@<TRIPOS>BOND
     1     1     2   ar
     2     1     6   ar
     3     2     3   ar
     4     2    17    1
     5     3     4   ar
     6     4     5   ar
     7     5     6   ar
     8     7     8   ar
     9     7    12   ar
    10     7    24    1
    11     8     9   ar
    12     9    10   ar
    13    10    11   ar
    14    10    13   ar
    15    11    15   ar
    16    11    12   ar
    17    13    16    1
    18    13    14   ar
    19    14    15   ar
    20    16    17    2
    21    18    19   ar
    22    18    24    1
    23    18    23   ar
    24    19    20   ar
    25    20    21   ar
    26    21    22   ar
    27    22    23   ar
    28    23    25    1
    29    25    27   am
    30    25    26    2
    31    27    28    1
