@<TRIPOS>MOLECULE
5am6_Lig.pdb
 29 33 0 0 0
SMALL
GASTEIGER

@<TRIPOS>ATOM
      1  C1       220.0510  -10.4830   31.8860 C.3     1  38O1        0.0897
      2  N2       219.7510   -9.9570   30.5430 N.3     1  38O1       -0.2686
      3  C3       220.9950   -9.5940   29.8570 C.3     1  38O1        0.0938
      4  C4       220.6900   -9.4060   28.3760 C.3     1  38O1        0.1081
      5  N5       219.5800   -8.4680   28.2540 N.pl3   1  38O1       -0.3046
      6  C6       218.8860   -7.8770   29.4100 C.3     1  38O1        0.1081
      7  C7       218.8910   -8.7680   30.6600 C.3     1  38O1        0.0938
      8  C8       219.1620   -8.0260   26.9900 C.ar    1  38O1        0.0495
      9  C9       218.2310   -8.7290   26.2010 C.ar    1  38O1        0.0352
     10  C10      217.8480   -8.2160   24.9560 C.ar    1  38O1        0.1018
     11  N11      217.0250   -8.5950   23.9450 N.ar    1  38O1       -0.2248
     12  C12      217.0880   -7.6070   23.0210 C.ar    1  38O1        0.1682
     13  N13      217.9450   -6.6300   23.3430 N.ar    1  38O1       -0.2249
     14  C14      218.4520   -6.9250   24.5400 C.ar    1  38O1        0.1007
     15  C15      219.3650   -6.2640   25.3490 C.ar    1  38O1        0.0220
     16  C16      219.7080   -6.8140   26.5710 C.ar    1  38O1        0.0162
     17  C17      216.3180   -7.7190   21.7510 C.ar    1  38O1        0.1103
     18  C18      216.6060   -6.7820   20.6290 C.ar    1  38O1        0.1003
     19  N19      217.5420   -5.7970   20.7280 N.pl3   1  38O1       -0.1277
     20  C20      215.8250   -6.9660   19.3770 C.ar    1  38O1        0.0622
     21  C21      216.0000   -6.1170   18.1740 C.ar    1  38O1        0.1428
     22  C23      215.2190   -6.3730   17.0370 C.ar    1  38O1        0.0298
     23  C24      214.2820   -7.4040   17.0320 C.ar    1  38O1        0.0039
     24  C25      214.0770   -8.2270   18.1430 C.ar    1  38O1        0.0194
     25  C26      214.8090   -8.0490   19.3190 C.ar    1  38O1        0.0880
     26  N27      214.6160   -8.8510   20.3720 N.ar    1  38O1       -0.2076
     27  C28      215.2770   -8.7470   21.5410 C.ar    1  38O1        0.2835
     28  O29      215.0160   -9.5510   22.4660 O.2     1  38O1       -0.2650
     29  F22      216.9150   -5.1280   18.1870 F       1  38O1       -0.2041
@<TRIPOS>BOND
     1     1     2    1
     2     2     3    1
     3     2     7    1
     4     3     4    1
     5     4     5    1
     6     5     6    1
     7     5     8    1
     8     6     7    1
     9     8     9   ar
    10     8    16   ar
    11     9    10   ar
    12    10    11   ar
    13    10    14   ar
    14    11    12   ar
    15    12    13   ar
    16    12    17    1
    17    13    14   ar
    18    14    15   ar
    19    15    16   ar
    20    17    18   ar
    21    17    27   ar
    22    18    19    1
    23    18    20   ar
    24    20    25   ar
    25    20    21   ar
    26    21    22   ar
    27    21    29    1
    28    22    23   ar
    29    23    24   ar
    30    24    25   ar
    31    25    26   ar
    32    26    27   ar
    33    27    28    2
