@<TRIPOS>MOLECULE
5ap4_Lig.pdb
 32 35 0 0 0
SMALL
GASTEIGER

@<TRIPOS>ATOM
      1  N         -3.8460   -9.0590  -10.6900 N.ar    1  O381       -0.2473
      2  C         -4.5730   -8.0360   -9.9350 C.3     1  O381        0.1538
      3  O         -2.6000   -8.5050  -14.5640 O.3     1  O381       -0.4592
      4  C1        -3.5510   -9.0170  -12.0460 C.ar    1  O381        0.0968
      5  N1        -3.3820  -10.1880  -10.0920 N.ar    1  O381       -0.1676
      6  C2        -2.8600  -10.1930  -12.3280 C.ar    1  O381        0.0425
      7  N2        -0.9130  -12.1340  -17.2650 N.pl3   1  O381       -0.1834
      8  C3        -2.7770  -10.8900  -11.0800 C.ar    1  O381        0.1217
      9  N3         3.3130  -17.1490  -18.4410 N.1     1  O381       -0.1951
     10  C4        -2.3430  -10.6520  -13.5880 C.ar    1  O381        0.0372
     11  N4         1.4500  -15.8940  -15.6930 N.pl3   1  O381       -0.2141
     12  C5        -1.9570  -11.9850  -13.7250 C.ar    1  O381        0.0044
     13  N5         0.2420  -14.0200  -16.4360 N.2     1  O381       -0.3719
     14  C6        -1.4840  -12.4950  -14.9130 C.ar    1  O381        0.0168
     15  N6        -0.0580   -6.9250  -16.0290 N.1     1  O381       -0.1920
     16  C7        -1.3800  -11.6720  -16.0240 C.ar    1  O381        0.0761
     17  C8        -0.0470  -13.1930  -17.4730 C.2     1  O381        0.2044
     18  C9         0.4890  -13.3320  -18.7770 C.2     1  O381        0.0465
     19  C10        1.3540  -14.3650  -19.0060 C.2     1  O381        0.0011
     20  C11        1.6840  -15.2360  -17.9770 C.3     1  O381        0.1812
     21  C12        2.5770  -16.2870  -18.2280 C.1     1  O381        0.0853
     22  C13        1.1140  -15.0390  -16.7050 C.2     1  O381        0.1955
     23  C14        1.0050  -15.7310  -14.3160 C.3     1  O381        0.0947
     24  C15        2.1030  -16.1520  -13.3590 C.3     1  O381        0.0216
     25  C16        1.6430  -16.0510  -11.9110 C.3     1  O381        0.0018
     26  C17        0.3880  -16.8610  -11.6750 C.3     1  O381        0.0001
     27  C18       -0.7080  -16.4360  -12.6250 C.3     1  O381        0.0018
     28  C19       -0.2550  -16.5380  -14.0750 C.3     1  O381        0.0216
     29  C20       -1.7460  -10.3380  -15.9310 C.ar    1  O381        0.0535
     30  C21       -2.2240   -9.8390  -14.7090 C.ar    1  O381        0.1414
     31  C22       -2.5080   -7.6070  -15.6570 C.3     1  O381        0.3090
     32  C23       -1.1370   -7.2330  -15.8770 C.1     1  O381        0.1218
@<TRIPOS>BOND
     1     1     2    1
     2     1     4   ar
     3     1     5   ar
     4     3    30    1
     5     3    31    1
     6     4     6   ar
     7     5     8   ar
     8     6     8   ar
     9     6    10    1
    10     7    17    1
    11     7    16    1
    12     9    21    3
    13    10    12   ar
    14    10    30   ar
    15    11    23    1
    16    11    22    1
    17    12    14   ar
    18    13    22    2
    19    13    17    2
    20    14    16   ar
    21    15    32    3
    22    16    29   ar
    23    17    18    1
    24    18    19    2
    25    19    20    1
    26    20    21    1
    27    20    22    1
    28    23    24    1
    29    23    28    1
    30    24    25    1
    31    25    26    1
    32    26    27    1
    33    27    28    1
    34    29    30   ar
    35    31    32    1
