@<TRIPOS>MOLECULE
5cas_Lig.pdb
 34 37 0 0 0
SMALL
GASTEIGER

@<TRIPOS>ATOM
      1  C1       -50.0070   -0.1520  -16.6200 C.3     1  4ZQ1        0.0438
      2  C2       -50.1210   -0.8110  -17.9990 C.3     1  4ZQ1        0.2080
      3  C3       -51.1220   -0.1330  -18.9190 C.ar    1  4ZQ1        0.1507
      4  N4       -51.9480    0.8060  -18.5630 N.ar    1  4ZQ1       -0.2286
      5  C5       -52.7010    1.1850  -19.6160 C.ar    1  4ZQ1        0.1258
      6  C6       -53.6990    2.1450  -19.7830 C.3     1  4ZQ1        0.3095
      7  N7       -54.2950    2.2700  -20.9560 N.2     1  4ZQ1       -0.0585
      8  C8       -53.9630    1.5540  -22.0310 C.2     1  4ZQ1        0.3449
      9  C9       -52.9340    0.6070  -21.9630 C.3     1  4ZQ1        0.1660
     10  C10      -52.3000    0.3960  -20.7280 C.ar    1  4ZQ1        0.0685
     11  N11      -51.3020   -0.4340  -20.2480 N.ar    1  4ZQ1       -0.3098
     12  C12      -50.5780   -1.4870  -20.9850 C.3     1  4ZQ1        0.1814
     13  C13      -51.4850   -2.5990  -21.5440 C.3     1  4ZQ1        0.0336
     14  C14      -49.5290   -0.9330  -21.9370 C.3     1  4ZQ1        0.4161
     15  N18      -54.6470    1.8740  -23.2090 N.pl3   1  4ZQ1        0.0105
     16  C19      -54.8220    1.1100  -24.3530 C.ar    1  4ZQ1        0.2703
     17  C20      -56.0020    1.2570  -25.1000 C.ar    1  4ZQ1        0.0857
     18  C21      -56.1520    0.4760  -26.2450 C.ar    1  4ZQ1        0.1072
     19  N22      -55.1840   -0.3760  -26.5810 N.ar    1  4ZQ1       -0.2119
     20  C23      -54.0720   -0.5150  -25.8420 C.ar    1  4ZQ1        0.2232
     21  N24      -53.8870    0.2600  -24.7720 N.ar    1  4ZQ1       -0.1729
     22  N25      -53.0250   -1.3500  -26.2420 N.pl3   1  4ZQ1       -0.2751
     23  C26      -52.0410   -1.8280  -25.2400 C.3     1  4ZQ1        0.0963
     24  C27      -50.6300   -1.8160  -25.8790 C.3     1  4ZQ1        0.0539
     25  C28      -50.6230   -2.6120  -27.2070 C.3     1  4ZQ1        0.1511
     26  C29      -51.7110   -2.1110  -28.1830 C.3     1  4ZQ1        0.2075
     27  C30      -53.0940   -2.0810  -27.5270 C.3     1  4ZQ1        0.1313
     28  O32      -49.3540   -2.4510  -27.8440 O.3     1  4ZQ1       -0.3507
     29  C33      -48.5140   -3.6060  -27.7360 C.3     1  4ZQ1        0.1741
     30  O34      -50.5620   -2.1560  -17.8340 O.3     1  4ZQ1       -0.2150
     31  F15      -48.7110   -0.0380  -21.2590 F       1  4ZQ1       -0.1680
     32  F16      -48.7580   -1.9750  -22.4320 F       1  4ZQ1       -0.1680
     33  F17      -50.1300   -0.2570  -22.9890 F       1  4ZQ1       -0.1680
     34  F31      -51.4170   -0.7950  -28.5290 F       1  4ZQ1       -0.2328
@<TRIPOS>BOND
     1     1     2    1
     2     2    30    1
     3     2     3    1
     4     3     4   ar
     5     3    11   ar
     6     4     5   ar
     7     5     6    1
     8     5    10   ar
     9     6     7    1
    10     7     8    2
    11     8     9    1
    12     8    15    1
    13     9    10    1
    14    10    11   ar
    15    11    12    1
    16    12    13    1
    17    12    14    1
    18    14    31    1
    19    14    32    1
    20    14    33    1
    21    15    16    1
    22    16    17   ar
    23    16    21   ar
    24    17    18   ar
    25    18    19   ar
    26    19    20   ar
    27    20    21   ar
    28    20    22    1
    29    22    23    1
    30    22    27    1
    31    23    24    1
    32    24    25    1
    33    25    26    1
    34    25    28    1
    35    26    27    1
    36    26    34    1
    37    28    29    1
