@<TRIPOS>MOLECULE
1xh9_Lig.pdb
 37 40 0 0 0
SMALL
GASTEIGER

@<TRIPOS>ATOM
      1  N11       10.4740   42.6110    5.4030 N.ar    1  R691       -0.2423
      2  C12       10.2090   41.3170    5.5390 C.ar    1  R691        0.0990
      3  C13       10.0960   40.7380    6.8000 C.ar    1  R691        0.0252
      4  C14       10.2490   41.4880    7.9680 C.ar    1  R691        0.0581
      5  C15       10.5300   42.8480    7.7990 C.ar    1  R691        0.0252
      6  C16       10.6380   43.3550    6.5060 C.ar    1  R691        0.0990
      7  C21       10.1020   40.8510    9.2840 C.2     1  R691        0.2649
      8  O22       10.0720   39.6130    9.4250 O.2     1  R691       -0.2684
      9  N23        9.9370   41.6510   10.4070 N.am    1  R691       -0.2002
     10  C31        9.3990   41.1270   11.6700 C.3     1  R691        0.1328
     11  C32        7.9570   41.6440   11.8140 C.3     1  R691        0.1120
     12  N33        7.3140   41.0610   13.0440 N.3     1  R691       -0.2162
     13  C34        7.5170   41.9130   14.2990 C.3     1  R691        0.0888
     14  C35        8.9340   41.8200   14.8670 C.3     1  R691        0.0206
     15  C36        9.9800   42.4120   13.9090 C.3     1  R691        0.0250
     16  C37       10.4410   41.4570   12.7840 C.3     1  R691        0.1170
     17  N41       10.9590   40.1770   13.3160 N.am    1  R691       -0.2016
     18  C42       12.1220   40.1060   14.0600 C.2     1  R691        0.2648
     19  O43       12.8560   41.0850   14.1060 O.2     1  R691       -0.2684
     20  C51       12.4330   38.8970   14.8490 C.ar    1  R691        0.0550
     21  C52       13.7470   38.6670   15.3180 C.ar    1  R691        0.0047
     22  C53       14.0360   37.5560   16.0970 C.ar    1  R691        0.0033
     23  C54       13.0190   36.6430   16.4290 C.ar    1  R691        0.0391
     24  C55       11.7310   36.8840   15.9670 C.ar    1  R691        0.0033
     25  C56       11.4330   37.9930   15.1920 C.ar    1  R691        0.0047
     26  C61       13.3100   35.5040   17.2950 C.2     1  R691        0.1987
     27  O62       14.2690   35.6380   18.0900 O.2     1  R691       -0.2865
     28  C71       12.5680   34.2790   17.3660 C.ar    1  R691        0.0790
     29  C72       12.4150   33.4450   16.2240 C.ar    1  R691        0.1988
     30  C73       11.6880   32.2340   16.3820 C.ar    1  R691        0.0434
     31  C74       11.1520   31.8950   17.6050 C.ar    1  R691        0.0178
     32  C75       11.3170   32.7300   18.7380 C.ar    1  R691        0.0482
     33  C76       12.0210   33.9220   18.6160 C.ar    1  R691        0.0209
     34  O92       12.9030   33.7670   15.0670 O.3     1  R691       -0.2865
     35  N95       10.7360   32.3640   19.9810 N.pl3   1  R691       -0.3041
     36  C98       10.6010   30.9260   20.2820 C.3     1  R691        0.1122
     37  C99        9.5650   33.1730   20.3690 C.3     1  R691        0.1122
@<TRIPOS>BOND
     1     1     6   ar
     2     1     2   ar
     3     2     3   ar
     4     3     4   ar
     5     4     5   ar
     6     4     7    1
     7     5     6   ar
     8     7     9   am
     9     7     8    2
    10     9    10    1
    11    10    11    1
    12    10    16    1
    13    11    12    1
    14    12    13    1
    15    13    14    1
    16    14    15    1
    17    15    16    1
    18    16    17    1
    19    17    18   am
    20    18    19    2
    21    18    20    1
    22    20    21   ar
    23    20    25   ar
    24    21    22   ar
    25    22    23   ar
    26    23    26    1
    27    23    24   ar
    28    24    25   ar
    29    26    27    2
    30    26    28    1
    31    28    29   ar
    32    28    33   ar
    33    29    30   ar
    34    29    34    1
    35    30    31   ar
    36    31    32   ar
    37    32    35    1
    38    35    36    1
    39    35    37    1
    40    33    32   ar
