@<TRIPOS>MOLECULE
3g0f_Lig.pdb
 22 24 0 0 0
SMALL
GASTEIGER

@<TRIPOS>ATOM
      1  C3       -17.0050   71.1090  -35.8030 C.3     1  B491        0.0328
      2  C4       -12.5570   70.4800  -38.3840 C.3     1  B491        0.0522
      3  C5       -17.2200   78.9120  -37.0410 C.ar    1  B491        0.0310
      4  C6       -15.9490   78.6880  -37.6290 C.ar    1  B491        0.0189
      5  C7       -17.4610   76.4830  -36.5450 C.ar    1  B491        0.0311
      6  C12      -15.8450   73.8610  -36.9720 C.2     1  B491        0.0234
      7  C13      -15.7520   71.3360  -36.5950 C.ar    1  B491        0.0014
      8  C14      -13.8060   70.9660  -37.7090 C.ar    1  B491        0.0635
      9  C15      -17.9580   77.8080  -36.5030 C.ar    1  B491        0.1402
     10  C16      -15.4740   77.3620  -37.6560 C.ar    1  B491        0.0739
     11  C17      -16.2070   76.2720  -37.1310 C.ar    1  B491        0.0221
     12  C18      -15.2880   72.5530  -37.0820 C.ar    1  B491        0.0773
     13  C19      -14.8080   70.3190  -36.9890 C.ar    1  B491        0.0677
     14  C20      -15.3940   75.0750  -37.3600 C.2     1  B491        0.0582
     15  C21      -14.1310   75.5470  -38.0500 C.2     1  B491        0.2691
     16  C22      -14.9040   68.8820  -36.6820 C.2     1  B491        0.2851
     17  N23      -14.1260   72.3020  -37.7440 N.ar    1  B491       -0.2498
     18  N24      -14.2720   76.9180  -38.1800 N.am    1  B491       -0.1754
     19  N25      -15.2650   68.5790  -35.3700 N.am    1  B491       -0.0837
     20  O27      -13.1940   74.8890  -38.4210 O.2     1  B491       -0.2680
     21  O28      -14.6630   68.0270  -37.5350 O.2     1  B491       -0.2666
     22  F29      -19.1470   78.0170  -35.9440 F       1  B491       -0.2042
@<TRIPOS>BOND
     1     1     7    1
     2     2     8    1
     3     3     4   ar
     4     3     9   ar
     5     4    10   ar
     6     5     9   ar
     7     5    11   ar
     8     6    12    1
     9     6    14    2
    10     7    12   ar
    11     7    13   ar
    12     8    13   ar
    13     8    17   ar
    14     9    22    1
    15    10    18    1
    16    10    11   ar
    17    11    14    1
    18    12    17   ar
    19    13    16    1
    20    14    15    1
    21    15    18   am
    22    15    20    2
    23    16    19   am
    24    16    21    2
