@<TRIPOS>MOLECULE
3qri_Lig.pdb
 41 45 0 0 0
SMALL
GASTEIGER

@<TRIPOS>ATOM
      1  C1        26.5400    7.9350   28.7590 C.ar    1  9191        0.0843
      2  C2        26.9920    6.6310   28.5320 C.ar    1  9191        0.0207
      3  C3        27.1300    5.6850   29.5410 C.ar    1  9191        0.0206
      4  C4        26.8920    6.0360   30.8630 C.ar    1  9191        0.0814
      5  C5        26.3500    7.2820   31.1250 C.ar    1  9191        0.0192
      6  C6        26.2240    8.2250   30.0900 C.ar    1  9191        0.0207
      7  C9        26.5480    5.3600   33.0870 C.ar    1  9191        0.0988
      8  N10       26.9800    5.1040   31.8390 N.ar    1  9191       -0.2438
      9  C13       26.0300    7.6110   32.4420 C.ar    1  9191        0.0031
     10  C14       26.2700    6.6790   33.4480 C.ar    1  9191        0.0207
     11  C22       29.0890   20.1520   30.3000 C.ar    1  9191        0.1021
     12  N23       28.6330   21.0580   31.1800 N.ar    1  9191       -0.2390
     13  C24       28.3310   20.7220   32.4460 C.ar    1  9191        0.1392
     14  C25       28.5310   19.4100   32.8760 C.ar    1  9191        0.0613
     15  C26       29.0080   18.4590   31.9850 C.ar    1  9191        0.1485
     16  C27       29.2920   18.8320   30.6840 C.ar    1  9191        0.0582
     17  C34       27.6220   14.5020   30.4660 C.ar    1  9191        0.0221
     18  C35       27.8550   15.7500   31.0450 C.ar    1  9191        0.0390
     19  C36       28.9910   15.9850   31.8080 C.ar    1  9191        0.1476
     20  C37       29.9050   14.9540   31.9970 C.ar    1  9191        0.0684
     21  C38       29.6810   13.7170   31.4130 C.ar    1  9191        0.1584
     22  C39       28.5530   13.4710   30.6310 C.ar    1  9191        0.1025
     23  C46       25.5050    9.5670   25.9910 C.ar    1  9191        0.0811
     24  C47       26.0910   10.6450   26.6250 C.ar    1  9191        0.0527
     25  C48       26.7810   10.1020   27.6990 C.ar    1  9191        0.1587
     26  N49       26.4570    8.7880   27.7170 N.ar    1  9191       -0.2145
     27  N50       25.6590    8.4110   26.6400 N.ar    1  9191       -0.1683
     28  N56       27.5220   10.6070   28.7330 N.am    1  9191       -0.1418
     29  C58       27.6000   11.9190   29.0400 C.2     1  9191        0.3491
     30  N60       28.3470   12.2220   30.1160 N.am    1  9191       -0.1584
     31  O63       27.0330   12.7870   28.3770 O.2     1  9191       -0.2484
     32  O65       29.2240   17.1830   32.4340 O.3     1  9191       -0.4533
     33  C70       27.8100   21.7820   33.3890 C.2     1  9191        0.2827
     34  O72       27.4140   21.4530   34.4960 O.2     1  9191       -0.2667
     35  N74       27.8050   23.0510   32.9930 N.am    1  9191       -0.1985
     36  C76       27.5850   24.1310   33.9340 C.3     1  9191        0.1389
     37  C79       24.4900    9.7050   24.8860 C.3     1  9191        0.0372
     38  C81       25.2690    9.5690   23.5810 C.3     1  9191        0.0060
     39  C83       23.7790   11.0620   24.9430 C.3     1  9191        0.0060
     40  C85       23.4640    8.5790   24.9890 C.3     1  9191        0.0060
     41  F68       30.5930   12.7680   31.6170 F       1  9191       -0.2027
@<TRIPOS>BOND
     1     1     2   ar
     2     1     6   ar
     3     1    26    1
     4     2     3   ar
     5     3     4   ar
     6     4     5   ar
     7     4     8   ar
     8     5     6   ar
     9     5     9   ar
    10     7     8   ar
    11     7    10   ar
    12     9    10   ar
    13    11    12   ar
    14    11    16   ar
    15    12    13   ar
    16    13    14   ar
    17    13    33    1
    18    14    15   ar
    19    15    16   ar
    20    15    32    1
    21    17    18   ar
    22    17    22   ar
    23    18    19   ar
    24    19    20   ar
    25    19    32    1
    26    20    21   ar
    27    21    22   ar
    28    21    41    1
    29    22    30    1
    30    23    24   ar
    31    23    27   ar
    32    23    37    1
    33    24    25   ar
    34    25    26   ar
    35    25    28    1
    36    26    27   ar
    37    28    29   am
    38    29    30   am
    39    29    31    2
    40    33    34    2
    41    33    35   am
    42    35    36    1
    43    37    38    1
    44    37    39    1
    45    37    40    1
