@<TRIPOS>MOLECULE
4clj_Lig.pdb
 30 33 0 0 0
SMALL
GASTEIGER

@<TRIPOS>ATOM
      1  C1       -30.0660  -16.1370   61.6330 C.ar    1  5P81        0.1734
      2  C2       -28.9910  -15.8410   62.5050 C.ar    1  5P81        0.2039
      3  N3       -27.9150  -16.6900   62.6300 N.ar    1  5P81       -0.2234
      4  C4       -27.8860  -17.8580   61.8940 C.ar    1  5P81        0.1007
      5  C5       -28.9010  -18.2500   61.0000 C.ar    1  5P81        0.0257
      6  C6       -29.9730  -17.3450   60.9060 C.ar    1  5P81        0.0416
      7  O7       -31.1180  -15.2320   61.5680 O.3     1  5P81       -0.4718
      8  C8       -32.2750  -15.4690   60.7050 C.3     1  5P81        0.1886
      9  C9       -33.0120  -14.1260   60.5870 C.3     1  5P81        0.0523
     10  C10      -33.1940  -16.5750   61.2820 C.ar    1  5P81        0.0238
     11  C11      -33.5690  -17.7760   60.5510 C.ar    1  5P81        0.0531
     12  C12      -34.4190  -18.7630   61.1520 C.ar    1  5P81        0.0066
     13  C13      -34.9010  -18.5840   62.4650 C.ar    1  5P81        0.0298
     14  C14      -34.5440  -17.4250   63.1840 C.ar    1  5P81        0.1399
     15  C15      -33.7080  -16.4310   62.6190 C.ar    1  5P81        0.0290
     16  N17      -29.0060  -14.6680   63.2680 N.pl3   1  5P81       -0.1039
     17  C18      -28.9220  -19.5080   60.1950 C.ar    1  5P81        0.0456
     18  C19      -27.8150  -20.2460   59.7130 C.ar    1  5P81        0.1470
     19  N20      -28.3490  -21.3210   59.0370 N.ar    1  5P81       -0.2394
     20  N21      -29.6860  -21.3610   59.0280 N.ar    1  5P81       -0.1713
     21  C22      -30.0690  -20.2820   59.7170 C.ar    1  5P81        0.1008
     22  C23      -26.4020  -20.0140   59.8440 C.1     1  5P81        0.1194
     23  N24      -25.2690  -19.8160   59.9700 N.1     1  5P81       -0.1893
     24  C25      -27.6310  -22.3840   58.3540 C.3     1  5P81        0.1545
     25  N26      -32.1870  -19.1260   58.8710 N.am    1  5P81       -0.2686
     26  C27      -33.1100  -18.0620   59.1520 C.2     1  5P81        0.2492
     27  C28      -31.5670  -20.0660   59.8730 C.3     1  5P81        0.1414
     28  C29      -31.8200  -19.3160   57.4560 C.3     1  5P81        0.1156
     29  O30      -33.5930  -17.3130   58.2950 O.2     1  5P81       -0.2699
     30  F16      -35.0020  -17.2600   64.4230 F       1  5P81       -0.2042
@<TRIPOS>BOND
     1     1     2   ar
     2     1     7    1
     3     1     6   ar
     4     2     3   ar
     5     2    16    1
     6     3     4   ar
     7     4     5   ar
     8     5    17    1
     9     5     6   ar
    10     7     8    1
    11     8     9    1
    12     8    10    1
    13    10    11   ar
    14    10    15   ar
    15    11    26    1
    16    11    12   ar
    17    12    13   ar
    18    13    14   ar
    19    14    30    1
    20    14    15   ar
    21    17    21   ar
    22    17    18   ar
    23    18    19   ar
    24    18    22    1
    25    19    20   ar
    26    19    24    1
    27    20    21   ar
    28    21    27    1
    29    22    23    3
    30    25    26   am
    31    25    27    1
    32    25    28    1
    33    26    29    2
