@<TRIPOS>MOLECULE
4eok_Lig.pdb
 28 31 0 0 0
SMALL
GASTEIGER

@<TRIPOS>ATOM
      1  N1         9.9360   26.3230   24.4200 N.2     1  4SP1       -0.2876
      2  C2        10.8400   27.0480   25.1360 C.1     1  4SP1        0.2290
      3  N2        10.4460   28.1300   25.8700 N.pl3   1  4SP1       -0.1253
      4  N3        12.1560   26.6950   25.1380 N.2     1  4SP1       -0.3050
      5  C4        12.5390   25.6130   24.4190 C.2     1  4SP1        0.2523
      6  C5        11.5850   24.8280   23.6370 C.2     1  4SP1        0.1985
      7  C6        10.2680   25.2390   23.6740 C.2     1  4SP1        0.3114
      8  O6         9.3160   24.5630   22.9710 O.2     1  4SP1       -0.4501
      9  N7        12.3000   23.8480   23.0530 N.2     1  4SP1       -0.2138
     10  C8        13.6010   23.9940   23.4260 C.2     1  4SP1        0.2014
     11  N9        13.7580   25.0660   24.2540 N.2     1  4SP1       -0.1915
     12  C10        8.0460   25.1750   22.7850 C.3     1  4SP1        0.2081
     13  C11        7.1780   24.3100   21.8930 C.3     1  4SP1        0.0438
     14  C12        7.5570   24.6290   20.4420 C.3     1  4SP1        0.0037
     15  C13        6.5450   24.0850   19.4360 C.3     1  4SP1        0.0001
     16  C14        5.1120   24.5010   19.7850 C.3     1  4SP1        0.0000
     17  C15        4.7360   24.0760   21.2040 C.3     1  4SP1        0.0001
     18  C16        5.7240   24.6510   22.2180 C.3     1  4SP1        0.0037
     19  C17        9.3040   28.8710   25.7430 C.ar    1  4SP1        0.0836
     20  C18        8.8600   29.6180   26.8350 C.ar    1  4SP1        0.0188
     21  C19        7.7070   30.4030   26.7560 C.ar    1  4SP1        0.0214
     22  C20        6.9660   30.4570   25.5730 C.ar    1  4SP1        0.1251
     23  C21        7.4130   29.7120   24.4800 C.ar    1  4SP1        0.0214
     24  C22        8.5690   28.9330   24.5620 C.ar    1  4SP1        0.0188
     25  S23        5.6310   31.3590   25.4520 S.O2    1  4SP1        0.0935
     26  O24        5.8550   32.4030   24.4250 O.2     1  4SP1       -0.1503
     27  O25        5.3250   32.0220   26.7490 O.2     1  4SP1       -0.1503
     28  N26        4.4410   30.5050   25.0510 N.3     1  4SP1        0.0392
@<TRIPOS>BOND
     1     1     7    2
     2     1     2    2
     3     2     3    1
     4     2     4    2
     5     3    19    1
     6     4     5    2
     7     5     6    1
     8     5    11    1
     9     6     9    2
    10     6     7    1
    11     7     8    1
    12     8    12    1
    13     9    10    1
    14    10    11    2
    15    12    13    1
    16    13    14    1
    17    13    18    1
    18    14    15    1
    19    15    16    1
    20    16    17    1
    21    17    18    1
    22    19    20   ar
    23    19    24   ar
    24    20    21   ar
    25    21    22   ar
    26    22    23   ar
    27    22    25    1
    28    23    24   ar
    29    25    26    2
    30    25    27    2
    31    25    28    1
