@<TRIPOS>MOLECULE
4mxo_Lig.pdb
 36 39 0 0 0
SMALL
GASTEIGER

@<TRIPOS>ATOM
      1  CAA       10.6830  -40.3670   -5.6270 C.3     1  DB81        0.2526
      2  CAC       16.4310  -40.0600   -3.7600 C.3     1  DB81        0.0760
      3  CAG        9.3840  -33.4810   -8.9310 C.1     1  DB81        0.1033
      4  CAH       11.8690  -33.8560   -8.3430 C.ar    1  DB81        0.1104
      5  CAI        5.5090  -34.9400   -9.3440 C.ar    1  DB81        0.0272
      6  CAJ        8.1730  -35.9190  -10.3200 C.ar    1  DB81        0.0551
      7  CAK       13.8600  -36.7470   -6.6700 C.ar    1  DB81        0.0592
      8  CAL       11.1210  -37.9580   -6.8020 C.ar    1  DB81        0.0429
      9  CAM       16.9240  -39.3370   -5.0010 C.3     1  DB81        0.0646
     10  CAN       15.9140  -38.2500   -5.3880 C.3     1  DB81        0.2070
     11  CAO       21.0490  -40.5570   -0.3430 C.3     1  DB81        0.0897
     12  CAP       17.4560  -40.5070   -1.4150 C.3     1  DB81        0.0897
     13  CAQ       18.7670  -39.5210   -3.1470 C.3     1  DB81        0.0897
     14  CAR       18.7270  -41.1750   -0.8600 C.3     1  DB81        0.0897
     15  CAS       19.9900  -40.1910   -2.6000 C.3     1  DB81        0.0897
     16  CAX        7.1390  -35.4450  -11.2830 C.ar    1  DB81        0.1505
     17  CAY        5.8180  -34.9570  -10.7980 C.ar    1  DB81        0.0924
     18  CAZ        6.5360  -35.4090   -8.3780 C.ar    1  DB81        0.0739
     19  NAD        8.5490  -32.8100   -9.3190 N.1     1  DB81       -0.1907
     20  NAT       12.9430  -34.6580   -7.8520 N.ar    1  DB81       -0.2429
     21  NAU        8.8470  -36.3470   -7.8950 N.pl3   1  DB81       -0.2107
     22  OAV       11.9810  -39.8870   -5.5250 O.3     1  DB81       -0.4684
     23  OAW       14.6150  -38.7740   -5.3780 O.3     1  DB81       -0.4723
     24  CBA       10.4700  -34.3750   -8.4260 C.ar    1  DB81        0.1027
     25  CBB        7.8580  -35.8990   -8.8550 C.ar    1  DB81        0.0841
     26  CBC       12.2390  -38.6700   -6.1040 C.ar    1  DB81        0.1725
     27  CBD       13.5930  -38.0830   -6.0360 C.ar    1  DB81        0.1737
     28  CBE       10.1960  -35.7920   -7.9680 C.ar    1  DB81        0.0831
     29  CBF       12.7470  -36.0100   -7.4030 C.ar    1  DB81        0.0858
     30  CBG       11.3700  -36.6270   -7.4550 C.ar    1  DB81        0.0368
     31  NBH       17.6010  -40.3220   -2.8600 N.3     1  DB81       -0.2702
     32  NBI       19.8710  -40.3650   -1.1810 N.3     1  DB81       -0.2691
     33 CL1         4.6420  -34.4180  -11.9310 Cl      1  DB81       -0.0791
     34 CL2         6.2000  -35.3890   -6.6850 Cl      1  DB81       -0.0809
     35  C01        8.7290  -35.7670  -12.9630 C.3     1  DB81        0.2525
     36  O02        7.4200  -35.4650  -12.6170 O.3     1  DB81       -0.4705
@<TRIPOS>BOND
     1     1    22    1
     2     2     9    1
     3     2    31    1
     4     3    24    1
     5     3    19    3
     6     4    20   ar
     7     4    24   ar
     8     5    17   ar
     9     5    18   ar
    10     6    16   ar
    11     6    25   ar
    12     7    27   ar
    13     7    29   ar
    14     8    26   ar
    15     8    30   ar
    16     9    10    1
    17    10    23    1
    18    11    32    1
    19    12    14    1
    20    12    31    1
    21    13    15    1
    22    13    31    1
    23    14    32    1
    24    15    32    1
    25    16    17   ar
    26    16    36    1
    27    17    33    1
    28    18    25   ar
    29    18    34    1
    30    20    29   ar
    31    21    25    1
    32    21    28    1
    33    22    26    1
    34    23    27    1
    35    24    28   ar
    36    26    27   ar
    37    28    30   ar
    38    29    30   ar
    39    35    36    1
