@<TRIPOS>MOLECULE
5am7_Lig.pdb
 29 33 0 0 0
SMALL
GASTEIGER

@<TRIPOS>ATOM
      1  C1       221.1200    2.4580   31.8530 C.3     1  38O1        0.0897
      2  N2       220.5350    2.2030   30.5290 N.3     1  38O1       -0.2686
      3  C3       221.4130    2.7580   29.4910 C.3     1  38O1        0.0938
      4  C4       220.9230    2.3010   28.1230 C.3     1  38O1        0.1081
      5  N5       219.5220    2.6940   28.0150 N.pl3   1  38O1       -0.3046
      6  C6       218.5620    2.4750   29.0970 C.3     1  38O1        0.1081
      7  C7       219.2260    2.8590   30.4150 C.3     1  38O1        0.0938
      8  C8       219.0890    3.2680   26.8140 C.ar    1  38O1        0.0495
      9  C9       218.1820    2.5830   26.0060 C.ar    1  38O1        0.0352
     10  C10      217.7530    3.1500   24.8010 C.ar    1  38O1        0.1018
     11  N11      216.9250    2.7660   23.8110 N.ar    1  38O1       -0.2248
     12  C12      216.9120    3.7860   22.9210 C.ar    1  38O1        0.1682
     13  N13      217.7250    4.8110   23.2450 N.ar    1  38O1       -0.2249
     14  C14      218.2840    4.4830   24.4260 C.ar    1  38O1        0.1007
     15  C15      219.1810    5.1310   25.2660 C.ar    1  38O1        0.0220
     16  C16      219.5800    4.5190   26.4510 C.ar    1  38O1        0.0162
     17  C17      216.0740    3.6230   21.7030 C.ar    1  38O1        0.1103
     18  C18      216.1910    4.6360   20.6230 C.ar    1  38O1        0.1003
     19  N19      217.0490    5.6690   20.7560 N.pl3   1  38O1       -0.1277
     20  C20      215.3580    4.4430   19.4020 C.ar    1  38O1        0.0622
     21  C21      215.3960    5.3590   18.2370 C.ar    1  38O1        0.1428
     22  C23      214.5770    5.0890   17.1330 C.ar    1  38O1        0.0298
     23  C24      213.7210    3.9830   17.1360 C.ar    1  38O1        0.0039
     24  C25      213.6500    3.0910   18.2120 C.ar    1  38O1        0.0194
     25  C26      214.4370    3.2820   19.3520 C.ar    1  38O1        0.0880
     26  N27      214.3930    2.4140   20.3750 N.ar    1  38O1       -0.2076
     27  C28      215.1030    2.5200   21.5180 C.ar    1  38O1        0.2835
     28  O29      214.9600    1.6500   22.4110 O.2     1  38O1       -0.2650
     29  F22      216.2120    6.4340   18.2600 F       1  38O1       -0.2041
@<TRIPOS>BOND
     1     1     2    1
     2     2     3    1
     3     2     7    1
     4     3     4    1
     5     4     5    1
     6     5     6    1
     7     5     8    1
     8     6     7    1
     9     8     9   ar
    10     8    16   ar
    11     9    10   ar
    12    10    11   ar
    13    10    14   ar
    14    11    12   ar
    15    12    13   ar
    16    12    17    1
    17    13    14   ar
    18    14    15   ar
    19    15    16   ar
    20    17    18   ar
    21    17    27   ar
    22    18    19    1
    23    18    20   ar
    24    20    25   ar
    25    20    21   ar
    26    21    22   ar
    27    21    29    1
    28    22    23   ar
    29    23    24   ar
    30    24    25   ar
    31    25    26   ar
    32    26    27   ar
    33    27    28    2
