@<TRIPOS>MOLECULE
5ap6_Lig.pdb
 35 39 0 0 0
SMALL
GASTEIGER

@<TRIPOS>ATOM
      1  N        -34.7310  -18.6520  -10.3130 N.2     1  PWU1       -0.0603
      2  C        -36.1870  -18.7650  -12.2270 C.ar    1  PWU1        0.0450
      3  O        -37.8880  -15.4070  -14.7730 O.2     1  PWU1       -0.2227
      4  C1       -35.4460  -19.3290  -11.2140 C.3     1  PWU1        0.2907
      5  N1       -36.9610  -16.9810  -13.3920 N.ar    1  PWU1       -0.2475
      6  O1       -36.5730  -14.7580  -13.0670 O.3     1  PWU1       -0.4362
      7  C2       -34.7280  -17.3210  -10.3920 C.2     1  PWU1        0.3430
      8  N2       -39.0580  -19.0090  -17.0350 N.ar    1  PWU1       -0.2473
      9  C3       -35.4360  -16.6160  -11.3650 C.3     1  PWU1        0.1649
     10  N3       -39.8810  -17.9570  -16.7100 N.ar    1  PWU1       -0.1675
     11  C4       -36.1630  -17.3600  -12.2860 C.ar    1  PWU1        0.0596
     12  N4       -33.9460  -16.6950   -9.4430 N.pl3   1  PWU1       -0.0097
     13  C5       -37.4620  -18.1350  -13.9860 C.ar    1  PWU1        0.0723
     14  N5       -31.8460  -10.6380   -7.9060 N.ar    1  PWU1       -0.3128
     15  C6       -37.0110  -19.2220  -13.3030 C.ar    1  PWU1        0.0190
     16  N6       -32.9530   -8.9230   -8.8560 N.ar    1  PWU1       -0.2294
     17  C7       -38.3000  -18.2310  -15.1390 C.ar    1  PWU1        0.0559
     18  C8       -38.1060  -19.1910  -16.1130 C.ar    1  PWU1        0.0981
     19  C9       -39.4160  -17.4930  -15.5640 C.ar    1  PWU1        0.1231
     20  C10      -39.2720  -19.7760  -18.2550 C.3     1  PWU1        0.1538
     21  C11      -37.1970  -15.6690  -13.8230 C.2     1  PWU1        0.4208
     22  C12      -36.6910  -13.3560  -13.4840 C.3     1  PWU1        0.1709
     23  C13      -37.4590  -12.6400  -12.4310 C.3     1  PWU1        0.0474
     24  C14      -35.3090  -12.8280  -13.6650 C.3     1  PWU1        0.0474
     25  C15      -33.6880  -15.3260   -9.2550 C.ar    1  PWU1        0.1831
     26  C16      -33.4110  -14.8340   -7.9870 C.ar    1  PWU1        0.0444
     27  C17      -33.1520  -13.4900   -7.8030 C.ar    1  PWU1        0.0051
     28  C18      -33.1630  -12.6100   -8.8780 C.ar    1  PWU1        0.0176
     29  C19      -33.4420  -13.1100  -10.1440 C.ar    1  PWU1        0.0051
     30  C20      -33.7010  -14.4530  -10.3320 C.ar    1  PWU1        0.0444
     31  C21      -32.8770  -11.1750   -8.6860 C.ar    1  PWU1        0.0802
     32  C22      -31.9580   -9.2750   -8.0680 C.ar    1  PWU1        0.1208
     33  C23      -33.5470  -10.0890   -9.2570 C.ar    1  PWU1        0.1173
     34  C24      -31.0260   -8.3240   -7.4130 C.3     1  PWU1        0.0718
     35  C25      -30.8650  -11.3450   -7.0800 C.3     1  PWU1        0.1316
@<TRIPOS>BOND
     1     1     4    1
     2     1     7    2
     3     2     4    1
     4     2    11   ar
     5     2    15   ar
     6     3    21    2
     7     5    11   ar
     8     5    13   ar
     9     5    21   am
    10     6    22    1
    11     6    21    1
    12     7    12    1
    13     7     9    1
    14     8    18   ar
    15     8    20    1
    16     8    10   ar
    17     9    11    1
    18    10    19   ar
    19    12    25    1
    20    13    15   ar
    21    13    17    1
    22    14    35    1
    23    14    31   ar
    24    14    32   ar
    25    16    32   ar
    26    16    33   ar
    27    17    18   ar
    28    17    19   ar
    29    22    23    1
    30    22    24    1
    31    25    26   ar
    32    25    30   ar
    33    26    27   ar
    34    27    28   ar
    35    28    31    1
    36    28    29   ar
    37    29    30   ar
    38    31    33   ar
    39    32    34    1
