C22H20N4O2
APtclcactv01052012563D 0   0.00000     0.00000     1
 
 48 51  0  0  0  0  0  0  0  0999 V2000
   17.6720   -4.1120   12.0080 C   0  0  0  0  0  0  0  0  0  0  0  0
   16.5060   -9.2590    8.3320 N   0  0  0  0  0  0  0  0  0  0  0  0
   17.7490   -5.5430   11.8760 O   0  0  0  0  0  0  0  0  0  0  0  0
   17.2470   -8.4830    7.4880 C   0  0  0  0  0  0  0  0  0  0  0  0
   18.1980   -7.5600    7.9830 C   0  0  0  0  0  0  0  0  0  0  0  0
   18.3460   -7.4790    9.3900 C   0  0  0  0  0  0  0  0  0  0  0  0
   17.5490   -8.3090   10.2520 C   0  0  0  0  0  0  0  0  0  0  0  0
   16.6440   -9.1800    9.6830 C   0  0  0  0  0  0  0  0  0  0  0  0
   17.4640   -8.4560   11.6670 C   0  0  0  0  0  0  0  0  0  0  0  0
   16.4730   -9.4440   11.7990 C   0  0  0  0  0  0  0  0  0  0  0  0
   15.9650   -9.8960   10.6090 N   0  0  0  0  0  0  0  0  0  0  0  0
   18.2100   -7.7730   12.7840 C   0  0  0  0  0  0  0  0  0  0  0  0
   18.3520   -6.3410   12.8870 C   0  0  0  0  0  0  0  0  0  0  0  0
   19.0910   -5.7890   14.0020 C   0  0  0  0  0  0  0  0  0  0  0  0
   19.6640   -6.6250   14.9760 C   0  0  0  0  0  0  0  0  0  0  0  0
   19.5160   -8.0170   14.8690 C   0  0  0  0  0  0  0  0  0  0  0  0
   18.8000   -8.5850   13.7850 C   0  0  0  0  0  0  0  0  0  0  0  0
   19.0080   -6.7250    7.0540 C   0  0  0  0  0  0  0  0  0  0  0  0
   19.2180   -5.3330    7.2550 C   0  0  0  0  0  0  0  0  0  0  0  0
   19.9670   -4.5750    6.3890 N   0  0  0  0  0  0  0  0  0  0  0  0
   20.5360   -5.1640    5.2910 C   0  0  0  0  0  0  0  0  0  0  0  0
   20.3730   -6.5440    5.0260 C   0  0  0  0  0  0  0  0  0  0  0  0
   19.6030   -7.3100    5.9250 C   0  0  0  0  0  0  0  0  0  0  0  0
   21.0130   -7.1580    3.8420 C   0  0  0  0  0  0  0  0  0  0  0  0
   22.2250   -7.4060    3.8850 O   0  0  0  0  0  0  0  0  0  0  0  0
   20.2490   -7.4680    2.6990 N   0  0  0  0  0  0  0  0  0  0  0  0
   18.7740   -7.4760    2.6120 C   0  0  0  0  0  0  0  0  0  0  0  0
   21.0070   -7.9270    1.5160 C   0  0  0  0  0  0  0  0  0  0  0  0
   18.7025   -3.7249   12.1857 H   0  0  0  0  0  0  0  0  0  0  0  0
   17.1707   -3.8803   12.9766 H   0  0  0  0  0  0  0  0  0  0  0  0
   17.1992   -3.4864   11.2154 H   0  0  0  0  0  0  0  0  0  0  0  0
   17.0771   -8.6019    6.4047 H   0  0  0  0  0  0  0  0  0  0  0  0
   19.0794   -6.7720    9.8130 H   0  0  0  0  0  0  0  0  0  0  0  0
   16.1193   -9.8365   12.7672 H   0  0  0  0  0  0  0  0  0  0  0  0
   15.2469  -10.6026   10.4493 H   0  0  0  0  0  0  0  0  0  0  0  0
   19.2213   -4.6993   14.1127 H   0  0  0  0  0  0  0  0  0  0  0  0
   20.2267   -6.1911   15.8196 H   0  0  0  0  0  0  0  0  0  0  0  0
   19.9639   -8.6668   15.6395 H   0  0  0  0  0  0  0  0  0  0  0  0
   18.6999   -9.6815   13.7191 H   0  0  0  0  0  0  0  0  0  0  0  0
   18.7786   -4.8162    8.1248 H   0  0  0  0  0  0  0  0  0  0  0  0
   21.1287   -4.5235    4.6165 H   0  0  0  0  0  0  0  0  0  0  0  0
   19.4633   -8.3886    5.7414 H   0  0  0  0  0  0  0  0  0  0  0  0
   18.4342   -6.4703    2.9531 H   0  0  0  0  0  0  0  0  0  0  0  0
   18.4157   -8.1534    3.4219 H   0  0  0  0  0  0  0  0  0  0  0  0
   18.1696   -7.7213    1.7077 H   0  0  0  0  0  0  0  0  0  0  0  0
   21.6460   -8.7983    1.7912 H   0  0  0  0  0  0  0  0  0  0  0  0
   21.7905   -7.1778    1.2551 H   0  0  0  0  0  0  0  0  0  0  0  0
   20.4026   -8.1723    0.6117 H   0  0  0  0  0  0  0  0  0  0  0  0
  1  3  1  0  0  0  0
  2  8  1  0  0  0  0
  2  4  2  0  0  0  0
  3 13  1  0  0  0  0
  4  5  1  0  0  0  0
  5  6  2  0  0  0  0
  5 18  1  0  0  0  0
  6  7  1  0  0  0  0
  7  8  2  0  0  0  0
  7  9  1  0  0  0  0
  8 11  1  0  0  0  0
  9 10  2  0  0  0  0
  9 12  1  0  0  0  0
 10 11  1  0  0  0  0
 12 17  1  0  0  0  0
 12 13  2  0  0  0  0
 13 14  1  0  0  0  0
 14 15  2  0  0  0  0
 15 16  1  0  0  0  0
 16 17  2  0  0  0  0
 18 23  2  0  0  0  0
 18 19  1  0  0  0  0
 19 20  2  0  0  0  0
 20 21  1  0  0  0  0
 21 22  2  0  0  0  0
 22 23  1  0  0  0  0
 22 24  1  0  0  0  0
 24 25  2  0  0  0  0
 24 26  1  0  0  0  0
 26 27  1  0  0  0  0
 26 28  1  0  0  0  0
  1 29  1  0  0  0  0
  1 30  1  0  0  0  0
  1 31  1  0  0  0  0
  4 32  1  0  0  0  0
  6 33  1  0  0  0  0
 10 34  1  0  0  0  0
 11 35  1  0  0  0  0
 14 36  1  0  0  0  0
 15 37  1  0  0  0  0
 16 38  1  0  0  0  0
 17 39  1  0  0  0  0
 19 40  1  0  0  0  0
 21 41  1  0  0  0  0
 23 42  1  0  0  0  0
 27 43  1  0  0  0  0
 27 44  1  0  0  0  0
 27 45  1  0  0  0  0
 28 46  1  0  0  0  0
 28 47  1  0  0  0  0
 28 48  1  0  0  0  0
M  END
> <UNIQUE_SMILES>
COc1ccccc1c2c[nH]c3ncc(cc23)c4cncc(c4)C(=O)N(C)C

$$$$
