C24H32N6O3
APtclcactv01052013183D 0   0.00000     0.00000     1
 
 65 69  0  0  0  0  0  0  0  0999 V2000
    0.3900   44.0940  130.0840 N   0  0  0  0  0  0  0  0  0  0  0  0
    0.4470   43.9480  128.7050 C   0  0  0  0  0  0  0  0  0  0  0  0
   -3.0650   39.5220  129.3510 O   0  0  0  0  0  0  0  0  0  0  0  0
   -0.9050   42.1370  128.6760 C   0  0  0  0  0  0  0  0  0  0  0  0
   -0.1650   42.9830  127.9300 N   0  0  0  0  0  0  0  0  0  0  0  0
    1.4370   47.4750  126.8380 O   0  0  0  0  0  0  0  0  0  0  0  0
   -1.0480   42.2130  130.0950 C   0  0  0  0  0  0  0  0  0  0  0  0
   -1.9110   41.1870  130.4890 N   0  0  0  0  0  0  0  0  0  0  0  0
    2.1600   45.3210  122.6400 O   0  0  0  0  0  0  0  0  0  0  0  0
   -0.3680   43.2140  130.7560 C   0  0  0  0  0  0  0  0  0  0  0  0
   -1.6750   41.0600  128.2250 N   0  0  0  0  0  0  0  0  0  0  0  0
   -2.3080   40.4660  129.3470 C   0  0  0  0  0  0  0  0  0  0  0  0
    1.1940   44.9380  128.0890 N   0  0  0  0  0  0  0  0  0  0  0  0
   -1.8050   40.6070  126.8370 C   0  0  0  0  0  0  0  0  0  0  0  0
   -0.3210   45.8340  119.2440 N   0  0  0  0  0  0  0  0  0  0  0  0
   -2.3780   41.7050  125.9370 C   0  0  0  0  0  0  0  0  0  0  0  0
   -1.8160   41.4540  124.5440 C   0  0  0  0  0  0  0  0  0  0  0  0
   -0.5470   40.6250  124.7280 C   0  0  0  0  0  0  0  0  0  0  0  0
   -0.4420   40.2700  126.2100 C   0  0  0  0  0  0  0  0  0  0  0  0
   -2.3620   40.8790  131.8320 C   0  0  0  0  0  0  0  0  0  0  0  0
    1.4340   45.0940  126.7110 C   0  0  0  0  0  0  0  0  0  0  0  0
    1.5600   43.9410  125.9290 C   0  0  0  0  0  0  0  0  0  0  0  0
    1.7910   44.0340  124.5710 C   0  0  0  0  0  0  0  0  0  0  0  0
    1.9010   45.2920  123.9800 C   0  0  0  0  0  0  0  0  0  0  0  0
    1.7750   46.4480  124.7240 C   0  0  0  0  0  0  0  0  0  0  0  0
    1.5440   46.3340  126.0930 C   0  0  0  0  0  0  0  0  0  0  0  0
    0.4280   48.3440  126.3790 C   0  0  0  0  0  0  0  0  0  0  0  0
    1.0310   45.2430  121.8000 C   0  0  0  0  0  0  0  0  0  0  0  0
    0.6840   46.6840  121.4230 C   0  0  0  0  0  0  0  0  0  0  0  0
   -0.5220   46.6500  120.4690 C   0  0  0  0  0  0  0  0  0  0  0  0
    0.1780   44.4750  119.5900 C   0  0  0  0  0  0  0  0  0  0  0  0
    1.3950   44.4680  120.5290 C   0  0  0  0  0  0  0  0  0  0  0  0
   -1.5510   45.7720  118.4160 C   0  0  0  0  0  0  0  0  0  0  0  0
   -0.4322   43.3135  131.8526 H   0  0  0  0  0  0  0  0  0  0  0  0
    2.1123   44.9127  128.5322 H   0  0  0  0  0  0  0  0  0  0  0  0
   -2.4700   39.7137  126.8909 H   0  0  0  0  0  0  0  0  0  0  0  0
   -2.1801   42.7351  126.3150 H   0  0  0  0  0  0  0  0  0  0  0  0
   -3.4913   41.7611  125.9615 H   0  0  0  0  0  0  0  0  0  0  0  0
   -1.6504   42.3896  123.9605 H   0  0  0  0  0  0  0  0  0  0  0  0
   -2.5519   40.9851  123.8499 H   0  0  0  0  0  0  0  0  0  0  0  0
    0.3651   41.1334  124.3369 H   0  0  0  0  0  0  0  0  0  0  0  0
   -0.5116   39.7307  124.0630 H   0  0  0  0  0  0  0  0  0  0  0  0
   -0.1212   39.2175  126.3903 H   0  0  0  0  0  0  0  0  0  0  0  0
    0.4148   40.7658  126.7232 H   0  0  0  0  0  0  0  0  0  0  0  0
   -2.8076   41.8213  132.2278 H   0  0  0  0  0  0  0  0  0  0  0  0
   -1.4377   40.7515  132.4425 H   0  0  0  0  0  0  0  0  0  0  0  0
   -3.0506   40.0603  132.1464 H   0  0  0  0  0  0  0  0  0  0  0  0
    1.4759   42.9427  126.3905 H   0  0  0  0  0  0  0  0  0  0  0  0
    1.8863   43.1162  123.9667 H   0  0  0  0  0  0  0  0  0  0  0  0
    1.8566   47.4349  124.2383 H   0  0  0  0  0  0  0  0  0  0  0  0
   -0.5525   47.8166  126.3178 H   0  0  0  0  0  0  0  0  0  0  0  0
    0.5734   48.5864  125.3004 H   0  0  0  0  0  0  0  0  0  0  0  0
    0.3407   49.2747  126.9867 H   0  0  0  0  0  0  0  0  0  0  0  0
    0.1800   44.7273  122.3031 H   0  0  0  0  0  0  0  0  0  0  0  0
    1.5529   47.2398  120.9995 H   0  0  0  0  0  0  0  0  0  0  0  0
    0.5110   47.3326  122.3133 H   0  0  0  0  0  0  0  0  0  0  0  0
   -1.4358   46.3139  121.0123 H   0  0  0  0  0  0  0  0  0  0  0  0
   -0.8299   47.6866  120.1973 H   0  0  0  0  0  0  0  0  0  0  0  0
    0.3969   43.8932  118.6644 H   0  0  0  0  0  0  0  0  0  0  0  0
   -0.6452   43.8543  120.0147 H   0  0  0  0  0  0  0  0  0  0  0  0
    1.7628   43.4380  120.7459 H   0  0  0  0  0  0  0  0  0  0  0  0
    2.3169   44.8586  120.0383 H   0  0  0  0  0  0  0  0  0  0  0  0
   -1.9251   46.7925  118.1673 H   0  0  0  0  0  0  0  0  0  0  0  0
   -2.4218   45.4067  119.0089 H   0  0  0  0  0  0  0  0  0  0  0  0
   -1.4001   45.1595  117.4966 H   0  0  0  0  0  0  0  0  0  0  0  0
  1 10  1  0  0  0  0
  1  2  2  0  0  0  0
  2  5  1  0  0  0  0
  2 13  1  0  0  0  0
  3 12  2  0  0  0  0
  4  5  2  0  0  0  0
  4 11  1  0  0  0  0
  4  7  1  0  0  0  0
  6 26  1  0  0  0  0
  6 27  1  0  0  0  0
  7 10  2  0  0  0  0
  7  8  1  0  0  0  0
  8 12  1  0  0  0  0
  8 20  1  0  0  0  0
  9 24  1  0  0  0  0
  9 28  1  0  0  0  0
 11 12  1  0  0  0  0
 11 14  1  0  0  0  0
 13 21  1  0  0  0  0
 14 16  1  0  0  0  0
 14 19  1  0  0  0  0
 15 33  1  0  0  0  0
 15 30  1  0  0  0  0
 15 31  1  0  0  0  0
 16 17  1  0  0  0  0
 17 18  1  0  0  0  0
 18 19  1  0  0  0  0
 21 26  1  0  0  0  0
 21 22  2  0  0  0  0
 22 23  1  0  0  0  0
 23 24  2  0  0  0  0
 24 25  1  0  0  0  0
 25 26  2  0  0  0  0
 28 29  1  0  0  0  0
 28 32  1  0  0  0  0
 29 30  1  0  0  0  0
 31 32  1  0  0  0  0
 10 34  1  0  0  0  0
 13 35  1  0  0  0  0
 14 36  1  0  0  0  0
 16 37  1  0  0  0  0
 16 38  1  0  0  0  0
 17 39  1  0  0  0  0
 17 40  1  0  0  0  0
 18 41  1  0  0  0  0
 18 42  1  0  0  0  0
 19 43  1  0  0  0  0
 19 44  1  0  0  0  0
 20 45  1  0  0  0  0
 20 46  1  0  0  0  0
 20 47  1  0  0  0  0
 22 48  1  0  0  0  0
 23 49  1  0  0  0  0
 25 50  1  0  0  0  0
 27 51  1  0  0  0  0
 27 52  1  0  0  0  0
 27 53  1  0  0  0  0
 28 54  1  0  0  0  0
 29 55  1  0  0  0  0
 29 56  1  0  0  0  0
 30 57  1  0  0  0  0
 30 58  1  0  0  0  0
 31 59  1  0  0  0  0
 31 60  1  0  0  0  0
 32 61  1  0  0  0  0
 32 62  1  0  0  0  0
 33 63  1  0  0  0  0
 33 64  1  0  0  0  0
 33 65  1  0  0  0  0
M  END
> <UNIQUE_SMILES>
COc1cc(OC2CCN(C)CC2)ccc1Nc3ncc4N(C)C(=O)N(C5CCCC5)c4n3

$$$$
