@<TRIPOS>MOLECULE
5cav_Lig.pdb
 38 41 0 0 0
SMALL
GASTEIGER

@<TRIPOS>ATOM
      1  C1       -50.0430   -0.0170  -16.5540 C.3     1  4ZQ1        0.0364
      2  C2       -50.4680   -1.0090  -17.6410 C.3     1  4ZQ1        0.1585
      3  C3       -51.4150   -0.3720  -18.6440 C.ar    1  4ZQ1        0.1437
      4  N4       -52.2060    0.6240  -18.3580 N.ar    1  4ZQ1       -0.2290
      5  C5       -52.9230    0.9730  -19.4470 C.ar    1  4ZQ1        0.1258
      6  C6       -53.8650    1.9770  -19.6830 C.3     1  4ZQ1        0.3095
      7  N7       -54.4320    2.0920  -20.8680 N.2     1  4ZQ1       -0.0585
      8  C8       -54.1440    1.2900  -21.8900 C.2     1  4ZQ1        0.3449
      9  C9       -53.1900    0.2710  -21.7430 C.3     1  4ZQ1        0.1659
     10  C10      -52.5580    0.0910  -20.4990 C.ar    1  4ZQ1        0.0681
     11  N11      -51.6060   -0.7710  -19.9510 N.ar    1  4ZQ1       -0.3154
     12  C12      -50.8730   -1.8900  -20.6000 C.3     1  4ZQ1        0.1381
     13  C13      -51.7820   -2.8800  -21.3390 C.3     1  4ZQ1        0.0270
     14  C14      -49.7640   -1.3820  -21.5290 C.3     1  4ZQ1        0.4107
     15  N18      -54.8200    1.5940  -23.0790 N.pl3   1  4ZQ1        0.0105
     16  C19      -54.9520    0.8260  -24.2280 C.ar    1  4ZQ1        0.2703
     17  C20      -56.1270    0.9370  -24.9910 C.ar    1  4ZQ1        0.0857
     18  C21      -56.2470    0.1510  -26.1290 C.ar    1  4ZQ1        0.1072
     19  N22      -55.2470   -0.6600  -26.4730 N.ar    1  4ZQ1       -0.2119
     20  C23      -54.1420   -0.7650  -25.7270 C.ar    1  4ZQ1        0.2232
     21  N24      -53.9860    0.0030  -24.6460 N.ar    1  4ZQ1       -0.1729
     22  N25      -53.1050   -1.6170  -26.1060 N.pl3   1  4ZQ1       -0.2756
     23  C26      -52.2620   -2.2180  -25.0550 C.3     1  4ZQ1        0.0959
     24  C27      -50.8370   -2.3070  -25.6240 C.3     1  4ZQ1        0.0471
     25  C28      -50.8480   -3.0610  -26.9750 C.3     1  4ZQ1        0.1019
     26  C29      -51.9230   -2.5240  -27.9540 C.3     1  4ZQ1        0.1531
     27  C30      -53.2910   -2.4940  -27.2760 C.3     1  4ZQ1        0.1240
     28  O32      -49.5470   -2.9420  -27.5760 O.3     1  4ZQ1       -0.3573
     29  C33      -48.7300   -4.1190  -27.6160 C.3     1  4ZQ1        0.1736
     30  O34      -51.1150   -2.1340  -17.0390 O.3     1  4ZQ1       -0.2223
     31  F15      -49.0110   -0.3920  -20.8910 F       1  4ZQ1       -0.1684
     32  F16      -48.9130   -2.4550  -21.8220 F       1  4ZQ1       -0.1684
     33  F17      -50.3060   -0.8570  -22.7080 F       1  4ZQ1       -0.1684
     34  F31      -51.6420   -1.2060  -28.3330 F       1  4ZQ1       -0.2404
     35  H3       -50.3820   -2.4830  -19.8330 H       1  4ZQ1        0.0624
     36  H10      -49.5630   -1.3440  -18.1470 H       1  4ZQ1        0.0716
     37  H18      -51.0780   -4.1090  -26.7720 H       1  4ZQ1        0.0632
     38  H19      -51.9680   -3.1590  -28.8390 H       1  4ZQ1        0.0701
@<TRIPOS>BOND
     1     1     2    1
     2     2     3    1
     3     2    30    1
     4     2    36    1
     5     3     4   ar
     6     3    11   ar
     7     4     5   ar
     8     5     6    1
     9     5    10   ar
    10     6     7    1
    11     7     8    2
    12     8     9    1
    13     8    15    1
    14     9    10    1
    15    10    11   ar
    16    11    12    1
    17    12    13    1
    18    12    14    1
    19    12    35    1
    20    14    31    1
    21    14    32    1
    22    14    33    1
    23    15    16    1
    24    16    17   ar
    25    16    21   ar
    26    17    18   ar
    27    18    19   ar
    28    19    20   ar
    29    20    21   ar
    30    20    22    1
    31    22    23    1
    32    22    27    1
    33    23    24    1
    34    24    25    1
    35    25    26    1
    36    25    28    1
    37    25    37    1
    38    26    27    1
    39    26    34    1
    40    26    38    1
    41    28    29    1
