@<TRIPOS>MOLECULE
5em8_Lig.pdb
 32 35 0 0 0
SMALL
GASTEIGER

@<TRIPOS>ATOM
      1  C1       -51.2050   -1.0500  -10.8970 C.3     1  5Q41        0.0897
      2  N2       -51.3930   -0.7790  -12.3310 N.3     1  5Q41       -0.2686
      3  C3       -52.6870   -0.1300  -12.6050 C.3     1  5Q41        0.0938
      4  C4       -52.9050   -0.2090  -14.1220 C.3     1  5Q41        0.1081
      5  N5       -51.8030    0.4690  -14.8500 N.pl3   1  5Q41       -0.3046
      6  C6       -50.4370    0.0140  -14.4630 C.3     1  5Q41        0.1081
      7  C7       -50.2630   -0.0370  -12.9320 C.3     1  5Q41        0.0938
      8  C8       -52.0880    0.5140  -16.2410 C.ar    1  5Q41        0.0480
      9  C9       -51.4460   -0.3010  -17.1950 C.ar    1  5Q41        0.0159
     10  C10      -51.8120   -0.2420  -18.5380 C.ar    1  5Q41        0.0179
     11  C11      -52.8400    0.6210  -18.9590 C.ar    1  5Q41        0.0738
     12  C12      -53.4830    1.4170  -18.0100 C.ar    1  5Q41        0.0179
     13  C13      -53.1100    1.3700  -16.6750 C.ar    1  5Q41        0.0159
     14  N14      -53.3190    0.7390  -20.2830 N.am    1  5Q41       -0.1753
     15  C15      -53.0060    0.0410  -21.4100 C.2     1  5Q41        0.2750
     16  O16      -52.1740   -0.8470  -21.3460 O.2     1  5Q41       -0.2678
     17  C17      -53.7160    0.3280  -22.6990 C.ar    1  5Q41        0.1283
     18  C18      -53.3650   -0.3260  -23.9390 C.ar    1  5Q41        0.0813
     19  C19      -54.1050    0.0010  -25.1120 C.ar    1  5Q41        0.0375
     20  C20      -55.1410    0.8720  -25.0830 C.ar    1  5Q41        0.1035
     21  N21      -55.4720    1.5000  -23.9240 N.ar    1  5Q41       -0.2061
     22  C23      -54.8160    1.2720  -22.7550 C.ar    1  5Q41        0.2850
     23  O24      -55.2030    1.9120  -21.7810 O.2     1  5Q41       -0.2650
     24  N25      -52.3010   -1.2250  -24.0500 N.pl3   1  5Q41       -0.2091
     25  C26      -52.3330   -2.5000  -24.6640 C.ar    1  5Q41        0.1043
     26  C27      -52.6550   -2.6320  -26.0290 C.ar    1  5Q41        0.0196
     27  C28      -52.6990   -3.8830  -26.6370 C.ar    1  5Q41        0.0015
     28  C29      -52.3640   -5.0200  -25.9010 C.ar    1  5Q41        0.0032
     29  C30      -52.0260   -4.9140  -24.5510 C.ar    1  5Q41        0.0382
     30  C31      -51.9740   -3.6580  -23.9260 C.ar    1  5Q41        0.1538
     31  O32      -51.6040   -3.5820  -22.6030 O.3     1  5Q41       -0.4701
     32  C33      -50.2090   -3.4370  -22.2690 C.3     1  5Q41        0.2525
@<TRIPOS>BOND
     1     1     2    1
     2     2     3    1
     3     2     7    1
     4     3     4    1
     5     4     5    1
     6     5     6    1
     7     5     8    1
     8     6     7    1
     9     8     9   ar
    10     8    13   ar
    11     9    10   ar
    12    10    11   ar
    13    11    12   ar
    14    11    14    1
    15    12    13   ar
    16    14    15   am
    17    15    16    2
    18    15    17    1
    19    17    18   ar
    20    17    22   ar
    21    18    19   ar
    22    18    24    1
    23    19    20   ar
    24    20    21   ar
    25    21    22   ar
    26    22    23    2
    27    24    25    1
    28    25    26   ar
    29    25    30   ar
    30    26    27   ar
    31    27    28   ar
    32    28    29   ar
    33    29    30   ar
    34    30    31    1
    35    31    32    1
