@<TRIPOS>MOLECULE
5em7_w_Lig.pdb
 36 39 0 0 0
SMALL
GASTEIGER

@<TRIPOS>ATOM
      1  C1         6.6450   11.1110   14.1230 C.3     1  5Q41       -0.1005
      2  N2         7.0590   10.3100   12.9620 N.4     1  5Q41        0.3878
      3  C3         6.7680   11.0420   11.7200 C.3     1  5Q41       -0.0556
      4  C4         7.2020   10.2010   10.5200 C.3     1  5Q41        0.0680
      5  N5         8.6430    9.9330   10.5940 N.pl3   1  5Q41       -0.3118
      6  C6         8.9460    9.2180   11.8420 C.3     1  5Q41        0.0680
      7  C7         8.5030   10.0610   13.0400 C.3     1  5Q41       -0.0556
      8  C8         9.0160    9.2000    9.5490 C.ar    1  5Q41        0.0478
      9  C9         8.4780    7.9350    9.3580 C.ar    1  5Q41        0.0158
     10  C10        8.8380    7.1810    8.2460 C.ar    1  5Q41        0.0159
     11  C11        9.7430    7.6960    7.3210 C.ar    1  5Q41        0.0506
     12  C12       10.2880    8.9590    7.5170 C.ar    1  5Q41        0.0159
     13  C13        9.9260    9.7100    8.6280 C.ar    1  5Q41        0.0158
     14  N14       10.0840    6.9960    6.2400 N.am    1  5Q41       -0.2802
     15  C15        9.5730    5.7850    6.0340 C.2     1  5Q41        0.2554
     16  O16        8.7800    5.2310    6.7940 O.2     1  5Q41       -0.2696
     17  C17       10.0410    5.0910    4.7520 C.ar    1  5Q41        0.1228
     18  C18        9.6630    3.7800    4.4980 C.ar    1  5Q41        0.0589
     19  C19       10.0660    3.1580    3.3200 C.ar    1  5Q41        0.0334
     20  C20       10.8480    3.8370    2.3930 C.ar    1  5Q41        0.0760
     21  N21       11.2280    5.1620    2.6470 N.ar    1  5Q41       -0.3197
     22  C23       10.8180    5.7870    3.8320 C.ar    1  5Q41        0.2633
     23  O24       11.1400    6.9550    4.0440 O.2     1  5Q41       -0.2670
     24  N25        8.9040    3.1360    5.3820 N.pl3   1  5Q41       -0.3099
     25  C26        8.5030    1.8790    5.2010 C.ar    1  5Q41        0.0828
     26  C27        8.8620    1.1520    4.0740 C.ar    1  5Q41        0.0177
     27  C28        8.4350   -0.1610    3.9160 C.ar    1  5Q41        0.0015
     28  C29        7.6410   -0.7540    4.8900 C.ar    1  5Q41        0.0032
     29  C30        7.2770   -0.0300    6.0200 C.ar    1  5Q41        0.0382
     30  C31        7.7090    1.2820    6.1750 C.ar    1  5Q41        0.1520
     31  O32        7.3590    1.9840    7.2850 O.3     1  5Q41       -0.4702
     32  C33        8.3490    1.7890    8.2960 C.3     1  5Q41        0.2525
     33  HAA        6.5750    9.4400   12.9550 H       1  5Q41       -0.0797
     34  HAB       10.7370    7.4030    5.6000 H       1  5Q41        0.1552
     35  HAC       11.7940    5.6590    1.9860 H       1  5Q41        0.1690
     36  HAD        8.6320    3.6110    6.2200 H       1  5Q41        0.1523
@<TRIPOS>BOND
     1    35    21    1
     2    20    21   ar
     3    20    19   ar
     4    21    22   ar
     5    19    18   ar
     6    22    23    2
     7    22    17   ar
     8    27    26   ar
     9    27    28   ar
    10    26    25   ar
    11    18    17   ar
    12    18    24    1
    13    17    15    1
    14    28    29   ar
    15    25    24    1
    16    25    30   ar
    17    24    36    1
    18    34    14    1
    19    29    30   ar
    20    15    14   am
    21    15    16    2
    22    30    31    1
    23    14    11    1
    24    31    32    1
    25    11    12   ar
    26    11    10   ar
    27    12    13   ar
    28    10     9   ar
    29    13     8   ar
    30     9     8   ar
    31     8     5    1
    32     4     5    1
    33     4     3    1
    34     5     6    1
    35     3     2    1
    36     6     7    1
    37    33     2    1
    38     2     7    1
    39     2     1    1
