@<TRIPOS>MOLECULE
4eor_w_Lig.pdb
 33 36 0 0 0
SMALL
GASTEIGER

@<TRIPOS>ATOM
      1  N1       -13.0910   -4.5020    4.0580 N.2     1  4SP1       -0.3140
      2  C2       -13.9110   -5.4180    3.5210 C.cat   1  4SP1        0.3917
      3  N2       -14.0380   -6.6240    4.0710 N.pl3   1  4SP1       -0.2505
      4  N3       -14.6110   -5.1480    2.4090 N.2     1  4SP1        0.0125
      5  C4       -14.5090   -3.9530    1.8110 C.2     1  4SP1        0.3854
      6  C5       -13.6690   -2.9900    2.3500 C.3     1  4SP1        0.2754
      7  C6       -12.9510   -3.2920    3.4980 C.2     1  4SP1        0.2882
      8  O6       -12.1050   -2.3700    4.0340 O.2     1  4SP1       -0.4532
      9  N7       -13.7440   -1.9180    1.5680 N.pl3   1  4SP1       -0.2765
     10  C8       -14.6010   -2.1880    0.5830 C.2     1  4SP1        0.3020
     11  N9       -15.0650   -3.4270    0.7250 N.2     1  4SP1       -0.0153
     12  C10      -12.0540   -2.5090    5.4590 C.3     1  4SP1        0.2078
     13  C11      -11.2040   -1.3760    6.0300 C.3     1  4SP1        0.0438
     14  C12       -9.7840   -1.4300    5.4640 C.3     1  4SP1        0.0037
     15  C13       -8.9290   -0.2910    6.0250 C.3     1  4SP1        0.0001
     16  C14       -8.8800   -0.3710    7.5530 C.3     1  4SP1        0.0000
     17  C15      -10.2950   -0.3200    8.1310 C.3     1  4SP1        0.0001
     18  C16      -11.1480   -1.4560    7.5580 C.3     1  4SP1        0.0037
     19  C17      -13.3640   -6.9680    5.1660 C.ar    1  4SP1        0.0533
     20  C18      -12.4960   -6.0790    5.7890 C.ar    1  4SP1        0.0160
     21  C19      -11.8230   -6.4560    6.9470 C.ar    1  4SP1        0.0176
     22  C20      -12.0240   -7.7180    7.4920 C.ar    1  4SP1        0.0892
     23  C21      -12.8910   -8.6080    6.8700 C.ar    1  4SP1        0.0176
     24  C22      -13.5570   -8.2350    5.7080 C.ar    1  4SP1        0.0160
     25  S23      -11.2240   -8.1840    8.9750 S.O2    1  4SP1       -0.0237
     26  O24      -10.4120   -9.4220    8.7380 O.2     1  4SP1       -0.1851
     27  O25      -12.2630   -8.4940   10.0130 O.2     1  4SP1       -0.1851
     28  N26      -10.2630   -6.9730    9.4940 N.4     1  4SP1        0.4312
     29  HAA       -9.4110   -7.4890    9.5940 H       1  4SP1       -0.0539
     30  HAB      -10.3200   -6.6750   10.4480 H       1  4SP1       -0.0539
     31  HAC       -9.9490   -6.3480    8.7760 H       1  4SP1       -0.0539
     32  HAD      -14.6580   -7.2860    3.6520 H       1  4SP1        0.1582
     33  HAE      -13.2510   -1.0570    1.6990 H       1  4SP1        0.1513
@<TRIPOS>BOND
     1    10    11    2
     2    10     9    1
     3    11     5    1
     4     9    33    1
     5     9     6    1
     6     5     6    1
     7     5     4    2
     8     6     7    1
     9     4     2    1
    10     7     8    1
    11     7     1    2
    12     2     1    2
    13     2     3    1
    14    32     3    1
    15     8    12    1
    16     3    19    1
    17    19    24   ar
    18    19    20   ar
    19    12    13    1
    20    14    15    1
    21    14    13    1
    22    24    23   ar
    23    20    21   ar
    24    15    16    1
    25    13    18    1
    26    23    22   ar
    27    21    22   ar
    28    22    25    1
    29    16    17    1
    30    18    17    1
    31    26    25    2
    32    31    28    1
    33    25    28    1
    34    25    27    2
    35    28    29    1
    36    28    30    1
