@<TRIPOS>MOLECULE
5cas_w_Lig.pdb
 36 39 0 0 0
SMALL
GASTEIGER

@<TRIPOS>ATOM
      1  C1         8.3090    6.6990   10.6000 C.3     1  4ZQ1        0.0400
      2  C2         7.9020    5.5670    9.6570 C.3     1  4ZQ1        0.1667
      3  C3         8.6040    5.7560    8.3120 C.ar    1  4ZQ1        0.1475
      4  N4         9.2230    6.8680    7.9250 N.ar    1  4ZQ1       -0.2269
      5  C5         9.7050    6.6400    6.7010 C.ar    1  4ZQ1        0.1176
      6  C6        10.4220    7.4360    5.8180 C.ar    1  4ZQ1        0.1208
      7  N7        10.7820    6.9600    4.6400 N.ar    1  4ZQ1       -0.2274
      8  C8        10.4760    5.7170    4.2450 C.ar    1  4ZQ1        0.1348
      9  C9         9.7600    4.8670    5.0820 C.ar    1  4ZQ1        0.0532
     10  C10        9.3680    5.3410    6.3310 C.ar    1  4ZQ1        0.0832
     11  N11        8.6870    4.8360    7.3540 N.ar    1  4ZQ1       -0.3067
     12  C12        8.0660    3.5030    7.4190 C.3     1  4ZQ1        0.1816
     13  C13        7.5890    3.0960    6.0240 C.3     1  4ZQ1        0.0336
     14  C14        9.0610    2.4940    7.9970 C.3     1  4ZQ1        0.4161
     15  N18       10.8340    5.3630    3.0120 N.pl3   1  4ZQ1       -0.2832
     16  C19       10.6080    4.1590    2.4910 C.ar    1  4ZQ1        0.1377
     17  C20       10.9980    3.9320    1.1760 C.ar    1  4ZQ1        0.0552
     18  C21       10.7550    2.6900    0.6070 C.ar    1  4ZQ1        0.1047
     19  N22       10.1590    1.7550    1.3260 N.ar    1  4ZQ1       -0.2120
     20  C23        9.7910    1.9870    2.5930 C.ar    1  4ZQ1        0.2214
     21  N24       10.0050    3.1760    3.1780 N.ar    1  4ZQ1       -0.1985
     22  N25        9.1980    0.9430    3.3150 N.pl3   1  4ZQ1       -0.2752
     23  C26        8.7870    1.1300    4.7220 C.3     1  4ZQ1        0.0963
     24  C27        9.3640   -0.0070    5.5640 C.3     1  4ZQ1        0.0539
     25  C28        8.9790   -1.3710    4.9830 C.3     1  4ZQ1        0.1511
     26  C29        9.5630   -1.4820    3.5700 C.3     1  4ZQ1        0.2075
     27  C30        8.9900   -0.3750    2.6780 C.3     1  4ZQ1        0.1313
     28  O32        9.5250   -2.4090    5.8130 O.3     1  4ZQ1       -0.3507
     29  C33        8.9530   -2.3030    7.1250 C.3     1  4ZQ1        0.1741
     30  O34        6.4890    5.5590    9.4500 O.3     1  4ZQ1       -0.3770
     31  F15        9.4110    2.8720    9.2210 F       1  4ZQ1       -0.1680
     32  F16        8.4860    1.2980    8.0520 F       1  4ZQ1       -0.1680
     33  F17       10.1410    2.4310    7.2250 F       1  4ZQ1       -0.1680
     34  F31       10.9480   -1.3930    3.6110 F       1  4ZQ1       -0.2328
     35  HAA        6.1900    6.4720    9.1730 H       1  4ZQ1        0.2109
     36  HAB       11.3000    6.0430    2.4440 H       1  4ZQ1        0.1550
@<TRIPOS>BOND
     1    18    17   ar
     2    18    19   ar
     3    17    16   ar
     4    19    20   ar
     5    36    15    1
     6    16    15    1
     7    16    21   ar
     8    20    21   ar
     9    20    22    1
    10    27    22    1
    11    27    26    1
    12    15     8    1
    13    22    23    1
    14    26    34    1
    15    26    25    1
    16     8     7   ar
    17     8     9   ar
    18     7     6   ar
    19    23    24    1
    20    25    24    1
    21    25    28    1
    22     9    10   ar
    23    28    29    1
    24     6     5   ar
    25    13    12    1
    26    10     5   ar
    27    10    11   ar
    28     5     4   ar
    29    33    14    1
    30    11    12    1
    31    11     3   ar
    32    12    14    1
    33     4     3   ar
    34    14    32    1
    35    14    31    1
    36     3     2    1
    37    35    30    1
    38    30     2    1
    39     2     1    1
