C28H31N5O4
APtclcactv01052013353D 0   0.00000     0.00000     1
 
 68 71  0  0  1  0  0  0  0  0999 V2000
    7.7040    8.8980    1.0990 N   0  0  0  0  0  0  0  0  0  0  0  0
    8.3480    7.8680    0.5790 C   0  0  0  0  0  0  0  0  0  0  0  0
    8.2460    6.6040    1.1470 C   0  0  0  0  0  0  0  0  0  0  0  0
    7.4490    6.4330    2.2710 C   0  0  0  0  0  0  0  0  0  0  0  0
    6.7850    7.5380    2.7920 C   0  0  0  0  0  0  0  0  0  0  0  0
    6.9410    8.7710    2.1710 C   0  0  0  0  0  0  0  0  0  0  0  0
    7.3020    5.0530    2.9170 C   0  0  0  0  0  0  0  0  0  0  0  0
    8.0280    4.1180    2.5840 O   0  0  0  0  0  0  0  0  0  0  0  0
    6.3610    4.9560    3.8530 N   0  0  0  0  0  0  0  0  0  0  0  0
    6.1060    3.6890    4.5520 C   0  0  2  0  0  0  0  0  0  0  0  0
    4.6450    3.6780    5.0050 C   0  0  0  0  0  0  0  0  0  0  0  0
    4.3900    2.5130    5.8660 N   0  3  0  0  0  0  0  0  0  0  0  0
    4.3120    2.9720    7.2620 C   0  0  0  0  0  0  0  0  0  0  0  0
    5.7170    3.1860    7.8360 C   0  0  0  0  0  0  0  0  0  0  0  0
    6.5680    4.1620    7.0210 C   0  0  0  0  0  0  0  0  0  0  0  0
    7.0850    3.5460    5.7180 C   0  0  1  0  0  0  0  0  0  0  0  0
    7.4340    2.1360    5.9420 N   0  0  0  0  0  0  0  0  0  0  0  0
    8.5480    1.7940    6.5790 C   0  0  0  0  0  0  0  0  0  0  0  0
    9.3500    2.6070    7.0400 O   0  0  0  0  0  0  0  0  0  0  0  0
    8.7860    0.2910    6.7380 C   0  0  0  0  0  0  0  0  0  0  0  0
    9.9850   -0.1690    7.2670 C   0  0  0  0  0  0  0  0  0  0  0  0
   10.2040   -1.5330    7.4120 C   0  0  0  0  0  0  0  0  0  0  0  0
    9.2250   -2.4420    7.0300 C   0  0  0  0  0  0  0  0  0  0  0  0
    8.0290   -1.9820    6.4940 C   0  0  0  0  0  0  0  0  0  0  0  0
    7.8080   -0.6180    6.3480 C   0  0  0  0  0  0  0  0  0  0  0  0
    9.4470   -3.9360    7.2600 C   0  0  0  0  0  0  0  0  0  0  0  0
   10.3170   -4.3130    8.0450 O   0  0  0  0  0  0  0  0  0  0  0  0
    8.5840   -4.9670    6.5270 C   0  0  0  0  0  0  0  0  0  0  0  0
    8.0680   -4.6960    5.2640 C   0  0  0  0  0  0  0  0  0  0  0  0
    7.3120   -5.6520    4.6000 C   0  0  0  0  0  0  0  0  0  0  0  0
    7.0780   -6.8910    5.1910 C   0  0  0  0  0  0  0  0  0  0  0  0
    7.5920   -7.1630    6.4530 C   0  0  0  0  0  0  0  0  0  0  0  0
    8.3420   -6.2040    7.1180 C   0  0  0  0  0  0  0  0  0  0  0  0
    8.2880   -3.6110    4.7250 O   0  5  0  0  0  0  0  0  0  0  0  0
    7.3490   -8.3370    7.0270 N   0  0  0  0  0  0  0  0  0  0  0  0
    7.8900   -8.6340    8.3620 C   0  0  0  0  0  0  0  0  0  0  0  0
    6.5310   -9.3400    6.3280 C   0  0  0  0  0  0  0  0  0  0  0  0
    5.1410    1.8570    5.7820 H   0  0  0  0  0  0  0  0  0  0  0  0
    3.5310    2.0710    5.6060 H   0  0  0  0  0  0  0  0  0  0  0  0
    5.7870    5.7250    4.1380 H   0  0  0  0  0  0  0  0  0  0  0  0
    6.7800    1.4730    5.5850 H   0  0  0  0  0  0  0  0  0  0  0  0
    8.9622    8.0606   -0.3167 H   0  0  0  0  0  0  0  0  0  0  0  0
    8.7899    5.7487    0.7119 H   0  0  0  0  0  0  0  0  0  0  0  0
    6.1443    7.4380    3.6843 H   0  0  0  0  0  0  0  0  0  0  0  0
    6.4413    9.6815    2.5423 H   0  0  0  0  0  0  0  0  0  0  0  0
    6.2686    2.8130    3.8816 H   0  0  0  0  0  0  0  0  0  0  0  0
    3.9406    3.7205    4.1417 H   0  0  0  0  0  0  0  0  0  0  0  0
    4.3550    4.6339    5.5004 H   0  0  0  0  0  0  0  0  0  0  0  0
    3.7075    2.2794    7.8930 H   0  0  0  0  0  0  0  0  0  0  0  0
    3.6792    3.8844    7.3637 H   0  0  0  0  0  0  0  0  0  0  0  0
    6.2447    2.2117    7.9608 H   0  0  0  0  0  0  0  0  0  0  0  0
    5.6628    3.5057    8.9028 H   0  0  0  0  0  0  0  0  0  0  0  0
    7.4070    4.5689    7.6323 H   0  0  0  0  0  0  0  0  0  0  0  0
    6.0134    5.1090    6.8240 H   0  0  0  0  0  0  0  0  0  0  0  0
    7.9960    4.1164    5.4216 H   0  0  0  0  0  0  0  0  0  0  0  0
   10.7641    0.5497    7.5723 H   0  0  0  0  0  0  0  0  0  0  0  0
   11.1576   -1.8952    7.8315 H   0  0  0  0  0  0  0  0  0  0  0  0
    7.2529   -2.7016    6.1835 H   0  0  0  0  0  0  0  0  0  0  0  0
    6.8565   -0.2569    5.9227 H   0  0  0  0  0  0  0  0  0  0  0  0
    6.8973   -5.4272    3.6030 H   0  0  0  0  0  0  0  0  0  0  0  0
    6.4864   -7.6558    4.6603 H   0  0  0  0  0  0  0  0  0  0  0  0
    8.7471   -6.4257    8.1197 H   0  0  0  0  0  0  0  0  0  0  0  0
    7.5649   -7.8277    9.0601 H   0  0  0  0  0  0  0  0  0  0  0  0
    8.9936   -8.4771    8.3367 H   0  0  0  0  0  0  0  0  0  0  0  0
    7.6862   -9.6188    8.8435 H   0  0  0  0  0  0  0  0  0  0  0  0
    6.9795   -9.5239    5.3239 H   0  0  0  0  0  0  0  0  0  0  0  0
    5.5566   -8.8724    6.0542 H   0  0  0  0  0  0  0  0  0  0  0  0
    6.3272  -10.3248    6.8095 H   0  0  0  0  0  0  0  0  0  0  0  0
  1  2  1  0  0  0  0
  1  6  2  0  0  0  0
  2  3  2  0  0  0  0
  3  4  1  0  0  0  0
  4  5  2  0  0  0  0
  4  7  1  0  0  0  0
  5  6  1  0  0  0  0
  7  8  2  0  0  0  0
  7  9  1  0  0  0  0
  9 40  1  0  0  0  0
  9 10  1  0  0  0  0
 10 16  1  0  0  0  0
 10 11  1  0  0  0  0
 11 12  1  0  0  0  0
 12 39  1  0  0  0  0
 12 38  1  0  0  0  0
 12 13  1  0  0  0  0
 13 14  1  0  0  0  0
 14 15  1  0  0  0  0
 15 16  1  0  0  0  0
 16 17  1  0  0  0  0
 17 41  1  0  0  0  0
 17 18  1  0  0  0  0
 18 19  2  0  0  0  0
 18 20  1  0  0  0  0
 20 21  1  0  0  0  0
 20 25  2  0  0  0  0
 21 22  2  0  0  0  0
 22 23  1  0  0  0  0
 23 24  2  0  0  0  0
 23 26  1  0  0  0  0
 24 25  1  0  0  0  0
 26 27  2  0  0  0  0
 26 28  1  0  0  0  0
 28 29  1  0  0  0  0
 28 33  2  0  0  0  0
 29 34  1  0  0  0  0
 29 30  2  0  0  0  0
 30 31  1  0  0  0  0
 31 32  2  0  0  0  0
 32 35  1  0  0  0  0
 32 33  1  0  0  0  0
 35 36  1  0  0  0  0
 35 37  1  0  0  0  0
  2 42  1  0  0  0  0
  3 43  1  0  0  0  0
  5 44  1  0  0  0  0
  6 45  1  0  0  0  0
 10 46  1  0  0  0  0
 11 47  1  0  0  0  0
 11 48  1  0  0  0  0
 13 49  1  0  0  0  0
 13 50  1  0  0  0  0
 14 51  1  0  0  0  0
 14 52  1  0  0  0  0
 15 53  1  0  0  0  0
 15 54  1  0  0  0  0
 16 55  1  0  0  0  0
 21 56  1  0  0  0  0
 22 57  1  0  0  0  0
 24 58  1  0  0  0  0
 25 59  1  0  0  0  0
 30 60  1  0  0  0  0
 31 61  1  0  0  0  0
 33 62  1  0  0  0  0
 36 63  1  0  0  0  0
 36 64  1  0  0  0  0
 36 65  1  0  0  0  0
 37 66  1  0  0  0  0
 37 67  1  0  0  0  0
 37 68  1  0  0  0  0
M  CHG  2  12   1  34  -1
M  END
> <UNIQUE_SMILES>
CN(C)c1ccc([O-])c(c1)C(=O)c2ccc(cc2)C(=O)NC3CCC[NH2+]CC3NC(=O)c4ccncc4

> <KDEEP_PKD>
6.682880401611328

> <KDEEP_DG>
-9.02

$$$$
