C27H34N6
APtclcactv01052013383D 0   0.00000     0.00000     1
 
 67 71  0  0  1  0  0  0  0  0999 V2000
    1.1270   10.0170   13.2590 C   0  0  0  0  0  0  0  0  0  0  0  0
    6.1560   -0.8000    5.6780 C   0  0  0  0  0  0  0  0  0  0  0  0
   11.0070   -1.6790    4.6620 C   0  0  0  0  0  0  0  0  0  0  0  0
   10.5250   -1.2130    5.8810 C   0  0  0  0  0  0  0  0  0  0  0  0
   10.2220   -1.5750    3.5200 C   0  0  0  0  0  0  0  0  0  0  0  0
    9.2650   -0.6330    5.9520 C   0  0  0  0  0  0  0  0  0  0  0  0
    8.9630   -0.9950    3.5930 C   0  0  0  0  0  0  0  0  0  0  0  0
    7.4950    8.4560    8.9500 C   0  0  0  0  0  0  0  0  0  0  0  0
    6.0870    6.7430    9.8870 C   0  0  0  0  0  0  0  0  0  0  0  0
    7.9610    7.5530    7.9990 C   0  0  0  0  0  0  0  0  0  0  0  0
    6.5520    5.8390    8.9370 C   0  0  0  0  0  0  0  0  0  0  0  0
    7.4550    4.1210    6.8360 C   0  0  0  0  0  0  0  0  0  0  0  0
    1.7370    9.2290   12.1000 C   0  0  0  0  0  0  0  0  0  0  0  0
    3.9910    9.7460   12.7790 C   0  0  0  0  0  0  0  0  0  0  0  0
    3.5500    7.7670   11.4770 C   0  0  0  0  0  0  0  0  0  0  0  0
    4.2380   10.5360   11.4930 C   0  0  0  0  0  0  0  0  0  0  0  0
    3.7940    8.5610   10.1930 C   0  0  0  0  0  0  0  0  0  0  0  0
    6.0260    9.0490   10.9230 C   0  0  0  0  0  0  0  0  0  0  0  0
    6.5570    8.0520    9.8910 C   0  0  0  0  0  0  0  0  0  0  0  0
    7.4900    6.2450    7.9930 C   0  0  0  0  0  0  0  0  0  0  0  0
    8.4870   -0.5190    4.8080 C   0  0  0  0  0  0  0  0  0  0  0  0
    7.1900    1.4190    5.5630 N   0  0  0  0  0  0  0  0  0  0  0  0
    8.8220    5.6290    6.0760 N   0  0  0  0  0  0  0  0  0  0  0  0
    7.9120    5.3600    7.0100 C   0  0  0  0  0  0  0  0  0  0  0  0
    7.0950    0.1160    4.8880 C   0  0  2  0  0  0  0  0  0  0  0  0
    3.0300    8.6650   12.5170 N   0  3  0  0  0  0  0  0  0  0  0  0
    4.7640    9.6350   10.4530 N   0  3  0  0  0  0  0  0  0  0  0  0
    8.7790    2.1770    4.0480 N   0  0  0  0  0  0  0  0  0  0  0  0
    9.5980    3.1170    3.6150 C   0  0  0  0  0  0  0  0  0  0  0  0
    9.6900    4.2890    4.2150 N   0  0  0  0  0  0  0  0  0  0  0  0
    8.9470    4.5610    5.2940 C   0  0  0  0  0  0  0  0  0  0  0  0
    8.0710    3.6000    5.7790 C   0  0  0  0  0  0  0  0  0  0  0  0
    8.0040    2.3760    5.1250 C   0  0  0  0  0  0  0  0  0  0  0  0
    2.8920    8.1530   13.3710 H   0  0  0  0  0  0  0  0  0  0  0  0
    4.9320   10.1550    9.6180 H   0  0  0  0  0  0  0  0  0  0  0  0
    6.6160    1.5520    6.3680 H   0  0  0  0  0  0  0  0  0  0  0  0
    9.3280    6.4870    5.9830 H   0  0  0  0  0  0  0  0  0  0  0  0
    1.8210   10.7976   13.6492 H   0  0  0  0  0  0  0  0  0  0  0  0
    1.0398    9.4035   14.1859 H   0  0  0  0  0  0  0  0  0  0  0  0
    0.1469   10.4445   12.9429 H   0  0  0  0  0  0  0  0  0  0  0  0
    6.5624   -1.0501    6.6857 H   0  0  0  0  0  0  0  0  0  0  0  0
    6.1236   -1.8321    5.2574 H   0  0  0  0  0  0  0  0  0  0  0  0
    5.1430   -0.3379    5.7362 H   0  0  0  0  0  0  0  0  0  0  0  0
   12.0114   -2.1308    4.6010 H   0  0  0  0  0  0  0  0  0  0  0  0
   11.1417   -1.3034    6.7910 H   0  0  0  0  0  0  0  0  0  0  0  0
   10.5986   -1.9532    2.5547 H   0  0  0  0  0  0  0  0  0  0  0  0
    8.8819   -0.2626    6.9177 H   0  0  0  0  0  0  0  0  0  0  0  0
    8.3410   -0.9124    2.6858 H   0  0  0  0  0  0  0  0  0  0  0  0
    7.8696    9.4934    8.9579 H   0  0  0  0  0  0  0  0  0  0  0  0
    5.3453    6.4217   10.6375 H   0  0  0  0  0  0  0  0  0  0  0  0
    8.7040    7.8741    7.2497 H   0  0  0  0  0  0  0  0  0  0  0  0
    6.1774    4.8016    8.9322 H   0  0  0  0  0  0  0  0  0  0  0  0
    6.6983    3.6147    7.4587 H   0  0  0  0  0  0  0  0  0  0  0  0
    1.8242    9.8425   11.1731 H   0  0  0  0  0  0  0  0  0  0  0  0
    1.0430    8.4484   11.7098 H   0  0  0  0  0  0  0  0  0  0  0  0
    4.9385    9.3667   13.2280 H   0  0  0  0  0  0  0  0  0  0  0  0
    3.6666   10.4023   13.6200 H   0  0  0  0  0  0  0  0  0  0  0  0
    2.8855    6.8876   11.3088 H   0  0  0  0  0  0  0  0  0  0  0  0
    4.4603    7.2171   11.8118 H   0  0  0  0  0  0  0  0  0  0  0  0
    4.9009   11.4166   11.6611 H   0  0  0  0  0  0  0  0  0  0  0  0
    3.3276   11.0833   11.1542 H   0  0  0  0  0  0  0  0  0  0  0  0
    2.8461    8.9484    9.7518 H   0  0  0  0  0  0  0  0  0  0  0  0
    4.1086    7.9061    9.3472 H   0  0  0  0  0  0  0  0  0  0  0  0
    5.9223    8.5890   11.9334 H   0  0  0  0  0  0  0  0  0  0  0  0
    6.7805    9.8299   11.1761 H   0  0  0  0  0  0  0  0  0  0  0  0
    6.6930    0.2573    3.8576 H   0  0  0  0  0  0  0  0  0  0  0  0
   10.2224    2.9178    2.7278 H   0  0  0  0  0  0  0  0  0  0  0  0
  1 13  1  0  0  0  0
  2 25  1  0  0  0  0
  3  5  1  0  0  0  0
  3  4  2  0  0  0  0
  4  6  1  0  0  0  0
  5  7  2  0  0  0  0
  6 21  2  0  0  0  0
  7 21  1  0  0  0  0
  8 19  1  0  0  0  0
  8 10  2  0  0  0  0
  9 19  2  0  0  0  0
  9 11  1  0  0  0  0
 10 20  1  0  0  0  0
 11 20  2  0  0  0  0
 12 32  1  0  0  0  0
 12 24  2  0  0  0  0
 13 26  1  0  0  0  0
 14 26  1  0  0  0  0
 14 16  1  0  0  0  0
 15 26  1  0  0  0  0
 15 17  1  0  0  0  0
 16 27  1  0  0  0  0
 17 27  1  0  0  0  0
 18 27  1  0  0  0  0
 18 19  1  0  0  0  0
 20 24  1  0  0  0  0
 21 25  1  0  0  0  0
 22 36  1  0  0  0  0
 22 33  1  0  0  0  0
 22 25  1  0  0  0  0
 23 37  1  0  0  0  0
 23 31  1  0  0  0  0
 23 24  1  0  0  0  0
 26 34  1  0  0  0  0
 27 35  1  0  0  0  0
 28 29  1  0  0  0  0
 28 33  2  0  0  0  0
 29 30  2  0  0  0  0
 30 31  1  0  0  0  0
 31 32  2  0  0  0  0
 32 33  1  0  0  0  0
  1 38  1  0  0  0  0
  1 39  1  0  0  0  0
  1 40  1  0  0  0  0
  2 41  1  0  0  0  0
  2 42  1  0  0  0  0
  2 43  1  0  0  0  0
  3 44  1  0  0  0  0
  4 45  1  0  0  0  0
  5 46  1  0  0  0  0
  6 47  1  0  0  0  0
  7 48  1  0  0  0  0
  8 49  1  0  0  0  0
  9 50  1  0  0  0  0
 10 51  1  0  0  0  0
 11 52  1  0  0  0  0
 12 53  1  0  0  0  0
 13 54  1  0  0  0  0
 13 55  1  0  0  0  0
 14 56  1  0  0  0  0
 14 57  1  0  0  0  0
 15 58  1  0  0  0  0
 15 59  1  0  0  0  0
 16 60  1  0  0  0  0
 16 61  1  0  0  0  0
 17 62  1  0  0  0  0
 17 63  1  0  0  0  0
 18 64  1  0  0  0  0
 18 65  1  0  0  0  0
 25 66  1  0  0  0  0
 29 67  1  0  0  0  0
M  CHG  2  26   1  27   1
M  END
> <UNIQUE_SMILES>
CC[NH+]1CC[NH+](CC1)Cc2ccc(cc2)c3[nH]c4ncnc(NC(C)c5ccccc5)c4c3

> <KDEEP_PKD>
7.044331073760986

> <KDEEP_DG>
-9.51

$$$$
