C16H16FN3O2
APtclcactv01052013493D 0   0.00000     0.00000     1
 
 38 40  0  0  0  0  0  0  0  0999 V2000
   -6.4090   -6.3290    9.7180 C   0  0  0  0  0  0  0  0  0  0  0  0
   -7.9440  -10.9920    8.2070 C   0  0  0  0  0  0  0  0  0  0  0  0
   -9.2620   -2.5280    3.6800 C   0  0  0  0  0  0  0  0  0  0  0  0
   -9.5860   -3.8210    3.2970 C   0  0  0  0  0  0  0  0  0  0  0  0
   -8.1690   -3.3770    5.6400 C   0  0  0  0  0  0  0  0  0  0  0  0
   -7.6860   -6.1410    7.0560 C   0  0  0  0  0  0  0  0  0  0  0  0
   -6.9980   -7.4880    8.9100 C   0  0  0  0  0  0  0  0  0  0  0  0
   -7.6650   -9.4860    8.2500 C   0  0  0  0  0  0  0  0  0  0  0  0
   -8.5520   -2.3020    4.8510 C   0  0  0  0  0  0  0  0  0  0  0  0
   -9.2040   -4.9030    4.0780 C   0  0  0  0  0  0  0  0  0  0  0  0
   -8.4940   -4.6700    5.2510 C   0  0  0  0  0  0  0  0  0  0  0  0
   -7.5940   -7.3920    7.6570 C   0  0  0  0  0  0  0  0  0  0  0  0
   -7.0440   -8.8200    9.2960 C   0  0  0  0  0  0  0  0  0  0  0  0
   -8.2700   -5.9190    5.8160 C   0  0  0  0  0  0  0  0  0  0  0  0
   -8.8450   -6.8460    4.9610 C   0  0  0  0  0  0  0  0  0  0  0  0
   -6.5050   -9.4390   10.5870 C   0  0  0  0  0  0  0  0  0  0  0  0
   -7.9840   -8.6130    7.2920 N   0  0  0  0  0  0  0  0  0  0  0  0
   -9.3980   -6.2090    3.9340 N   0  0  0  0  0  0  0  0  0  0  0  0
   -5.8190   -8.6130   11.3690 N   0  0  0  0  0  0  0  0  0  0  0  0
   -8.8240   -8.0650    5.1050 O   0  0  0  0  0  0  0  0  0  0  0  0
   -6.7270  -10.6180   10.8570 O   0  0  0  0  0  0  0  0  0  0  0  0
   -8.2320   -1.0470    5.2180 F   0  0  0  0  0  0  0  0  0  0  0  0
   -8.4520   -8.8510    6.4390 H   0  0  0  0  0  0  0  0  0  0  0  0
   -9.8770   -6.6450    3.1760 H   0  0  0  0  0  0  0  0  0  0  0  0
   -5.6840   -7.6580   11.1000 H   0  0  0  0  0  0  0  0  0  0  0  0
   -5.4290   -8.9460   12.2280 H   0  0  0  0  0  0  0  0  0  0  0  0
   -5.3608   -6.6197    9.9629 H   0  0  0  0  0  0  0  0  0  0  0  0
   -6.9176   -6.3495   10.7100 H   0  0  0  0  0  0  0  0  0  0  0  0
   -6.3720   -5.2586    9.4078 H   0  0  0  0  0  0  0  0  0  0  0  0
   -7.4880  -11.3736    7.2637 H   0  0  0  0  0  0  0  0  0  0  0  0
   -9.0373  -11.1082    8.0215 H   0  0  0  0  0  0  0  0  0  0  0  0
   -7.6775  -11.7213    9.0073 H   0  0  0  0  0  0  0  0  0  0  0  0
   -9.5702   -1.6761    3.0508 H   0  0  0  0  0  0  0  0  0  0  0  0
  -10.1513   -3.9899    2.3650 H   0  0  0  0  0  0  0  0  0  0  0  0
   -7.6078   -3.2042    6.5737 H   0  0  0  0  0  0  0  0  0  0  0  0
   -8.1928   -5.4644    7.7830 H   0  0  0  0  0  0  0  0  0  0  0  0
   -6.6539   -5.7215    7.0122 H   0  0  0  0  0  0  0  0  0  0  0  0
   -9.2181   -8.7004    4.5190 H   0  0  0  0  0  0  0  0  0  0  0  0
  1  7  1  0  0  0  0
  2  8  1  0  0  0  0
  3  4  1  0  0  0  0
  3  9  2  0  0  0  0
  4 10  2  0  0  0  0
  5  9  1  0  0  0  0
  5 11  2  0  0  0  0
  6 14  1  0  0  0  0
  6 12  1  0  0  0  0
  7 13  1  0  0  0  0
  7 12  2  0  0  0  0
  8 17  1  0  0  0  0
  8 13  2  0  0  0  0
  9 22  1  0  0  0  0
 10 18  1  0  0  0  0
 10 11  1  0  0  0  0
 11 14  1  0  0  0  0
 12 17  1  0  0  0  0
 13 16  1  0  0  0  0
 14 15  2  0  0  0  0
 15 20  1  0  0  0  0
 15 18  1  0  0  0  0
 16 21  2  0  0  0  0
 16 19  1  0  0  0  0
 17 23  1  0  0  0  0
 18 24  1  0  0  0  0
 19 26  1  0  0  0  0
 19 25  1  0  0  0  0
  1 27  1  0  0  0  0
  1 28  1  0  0  0  0
  1 29  1  0  0  0  0
  2 30  1  0  0  0  0
  2 31  1  0  0  0  0
  2 32  1  0  0  0  0
  3 33  1  0  0  0  0
  4 34  1  0  0  0  0
  5 35  1  0  0  0  0
  6 36  1  0  0  0  0
  6 37  1  0  0  0  0
 20 38  1  0  0  0  0
M  END
> <UNIQUE_SMILES>
Cc1[nH]c(Cc2c(O)[nH]c3ccc(F)cc23)c(C)c1C(N)=O

> <KDEEP_PKD>
6.280006408691406

> <KDEEP_DG>
-8.48

$$$$
