C30H36N6O4
APtclcactv01052013513D 0   0.00000     0.00000     1
 
 76 80  0  0  0  0  0  0  0  0999 V2000
   10.4260    1.4830   -0.9770 C   0  0  0  0  0  0  0  0  0  0  0  0
    7.2950    4.0560    0.5570 C   0  0  0  0  0  0  0  0  0  0  0  0
    7.1840    5.4340    0.6910 C   0  0  0  0  0  0  0  0  0  0  0  0
    7.5100    1.4360   -4.4150 C   0  0  0  0  0  0  0  0  0  0  0  0
    8.0190    3.5160   -0.5010 C   0  0  0  0  0  0  0  0  0  0  0  0
    7.9930    2.6500   -3.9300 C   0  0  0  0  0  0  0  0  0  0  0  0
    6.9860   -5.4360   -4.3220 C   0  0  0  0  0  0  0  0  0  0  0  0
    8.5200    5.7350   -1.2860 C   0  0  0  0  0  0  0  0  0  0  0  0
    8.7970    0.2600   -2.7600 C   0  0  0  0  0  0  0  0  0  0  0  0
    6.2870   -4.9000   -5.3200 C   0  0  0  0  0  0  0  0  0  0  0  0
    8.8970   -3.2970   -2.1430 C   0  0  0  0  0  0  0  0  0  0  0  0
    7.5900   -4.4600   -3.6490 C   0  0  0  0  0  0  0  0  0  0  0  0
    7.2410   -3.2600   -4.2560 C   0  0  0  0  0  0  0  0  0  0  0  0
    7.7910    6.2770   -0.2300 C   0  0  0  0  0  0  0  0  0  0  0  0
    7.9110    0.2390   -3.8280 C   0  0  0  0  0  0  0  0  0  0  0  0
    8.6360    4.3580   -1.4190 C   0  0  0  0  0  0  0  0  0  0  0  0
    8.8930    2.6620   -2.8670 C   0  0  0  0  0  0  0  0  0  0  0  0
    9.2960    1.4640   -2.2830 C   0  0  0  0  0  0  0  0  0  0  0  0
    7.7600   -2.0750   -3.7500 C   0  0  0  0  0  0  0  0  0  0  0  0
    8.2590    8.4190   -0.9600 C   0  0  0  0  0  0  0  0  0  0  0  0
    9.6700   13.4850   -2.0810 C   0  0  0  0  0  0  0  0  0  0  0  0
    8.3510   12.9920   -2.6810 C   0  0  0  0  0  0  0  0  0  0  0  0
   10.6390   12.3170   -1.8960 C   0  0  0  0  0  0  0  0  0  0  0  0
    7.7360   11.9070   -1.7930 C   0  0  0  0  0  0  0  0  0  0  0  0
   10.0120   11.2350   -1.0150 C   0  0  0  0  0  0  0  0  0  0  0  0
    8.7040   10.7340   -1.6230 C   0  0  0  0  0  0  0  0  0  0  0  0
    5.9090   -2.6360   -6.2650 C   0  0  0  0  0  0  0  0  0  0  0  0
    4.5560   -2.0960   -5.7990 C   0  0  0  0  0  0  0  0  0  0  0  0
    3.0600    0.3080   -5.2440 C   0  0  0  0  0  0  0  0  0  0  0  0
    3.4670   -0.7480   -4.2160 C   0  0  0  0  0  0  0  0  0  0  0  0
    8.4150   -4.4400   -2.5950 N   0  0  0  0  0  0  0  0  0  0  0  0
    8.5870   -2.1410   -2.6940 N   0  0  0  0  0  0  0  0  0  0  0  0
    6.4510   -3.5810   -5.2770 N   0  0  0  0  0  0  0  0  0  0  0  0
    7.4260   -0.9070   -4.2970 N   0  0  0  0  0  0  0  0  0  0  0  0
    7.6890    7.5970   -0.0830 N   0  0  0  0  0  0  0  0  0  0  0  0
    8.1100    9.7210   -0.7370 N   0  0  0  0  0  0  0  0  0  0  0  0
    8.8650    8.0040   -1.9490 O   0  0  0  0  0  0  0  0  0  0  0  0
    2.9040   -0.3010   -6.5300 O   0  0  0  0  0  0  0  0  0  0  0  0
    9.3970    3.8430   -2.4210 O   0  0  0  0  0  0  0  0  0  0  0  0
    4.7150   -1.3510   -4.5830 O   0  0  0  0  0  0  0  0  0  0  0  0
    3.8030   -0.3850   -6.9680 H   0  0  0  0  0  0  0  0  0  0  0  0
    6.7970   -0.8920   -5.0760 H   0  0  0  0  0  0  0  0  0  0  0  0
    7.1710    7.9520    0.6980 H   0  0  0  0  0  0  0  0  0  0  0  0
    7.5930   10.0850    0.0370 H   0  0  0  0  0  0  0  0  0  0  0  0
   11.2875    0.8296   -1.2493 H   0  0  0  0  0  0  0  0  0  0  0  0
    9.9817    0.9238   -0.1208 H   0  0  0  0  0  0  0  0  0  0  0  0
   10.8269    2.4503   -0.5938 H   0  0  0  0  0  0  0  0  0  0  0  0
    6.8085    3.3910    1.2903 H   0  0  0  0  0  0  0  0  0  0  0  0
    6.6117    5.8605    1.5319 H   0  0  0  0  0  0  0  0  0  0  0  0
    6.8083    1.4225   -5.2659 H   0  0  0  0  0  0  0  0  0  0  0  0
    8.1037    2.4219   -0.6118 H   0  0  0  0  0  0  0  0  0  0  0  0
    7.6639    3.5988   -4.3862 H   0  0  0  0  0  0  0  0  0  0  0  0
    7.0536   -6.5123   -4.0906 H   0  0  0  0  0  0  0  0  0  0  0  0
    9.0073    6.3988   -2.0198 H   0  0  0  0  0  0  0  0  0  0  0  0
    9.1068   -0.6870   -2.2869 H   0  0  0  0  0  0  0  0  0  0  0  0
    5.6778   -5.4527   -6.0548 H   0  0  0  0  0  0  0  0  0  0  0  0
    9.5805   -3.3082   -1.2774 H   0  0  0  0  0  0  0  0  0  0  0  0
   10.1201   14.3068   -2.6854 H   0  0  0  0  0  0  0  0  0  0  0  0
    9.5103   14.0470   -1.1313 H   0  0  0  0  0  0  0  0  0  0  0  0
    8.4765   12.6462   -3.7336 H   0  0  0  0  0  0  0  0  0  0  0  0
    7.6395   13.8302   -2.8665 H   0  0  0  0  0  0  0  0  0  0  0  0
   11.6247   12.6550   -1.4992 H   0  0  0  0  0  0  0  0  0  0  0  0
   10.9851   11.9067   -2.8733 H   0  0  0  0  0  0  0  0  0  0  0  0
    6.7442   11.5720   -2.1768 H   0  0  0  0  0  0  0  0  0  0  0  0
    7.4056   12.3159   -0.8097 H   0  0  0  0  0  0  0  0  0  0  0  0
    9.8721   11.5862    0.0340 H   0  0  0  0  0  0  0  0  0  0  0  0
   10.7231   10.3990   -0.8185 H   0  0  0  0  0  0  0  0  0  0  0  0
    8.9056   10.2786   -2.6206 H   0  0  0  0  0  0  0  0  0  0  0  0
    5.8477   -3.0883   -7.2823 H   0  0  0  0  0  0  0  0  0  0  0  0
    6.6281   -1.8147   -6.4923 H   0  0  0  0  0  0  0  0  0  0  0  0
    3.7965   -2.9058   -5.6960 H   0  0  0  0  0  0  0  0  0  0  0  0
    4.0500   -1.4974   -6.5920 H   0  0  0  0  0  0  0  0  0  0  0  0
    2.1473    0.8670   -4.9316 H   0  0  0  0  0  0  0  0  0  0  0  0
    3.7733    1.1646   -5.2697 H   0  0  0  0  0  0  0  0  0  0  0  0
    2.6669   -1.5098   -4.0651 H   0  0  0  0  0  0  0  0  0  0  0  0
    3.4962   -0.3309   -3.1824 H   0  0  0  0  0  0  0  0  0  0  0  0
  1 18  1  0  0  0  0
  2  3  1  0  0  0  0
  2  5  2  0  0  0  0
  3 14  2  0  0  0  0
  4 15  1  0  0  0  0
  4  6  2  0  0  0  0
  5 16  1  0  0  0  0
  6 17  1  0  0  0  0
  7 12  1  0  0  0  0
  7 10  2  0  0  0  0
  8 16  2  0  0  0  0
  8 14  1  0  0  0  0
  9 15  2  0  0  0  0
  9 18  1  0  0  0  0
 10 33  1  0  0  0  0
 11 32  1  0  0  0  0
 11 31  2  0  0  0  0
 12 31  1  0  0  0  0
 12 13  2  0  0  0  0
 13 33  1  0  0  0  0
 13 19  1  0  0  0  0
 14 35  1  0  0  0  0
 15 34  1  0  0  0  0
 16 39  1  0  0  0  0
 17 39  1  0  0  0  0
 17 18  2  0  0  0  0
 19 34  1  0  0  0  0
 19 32  2  0  0  0  0
 20 37  2  0  0  0  0
 20 36  1  0  0  0  0
 20 35  1  0  0  0  0
 21 23  1  0  0  0  0
 21 22  1  0  0  0  0
 22 24  1  0  0  0  0
 23 25  1  0  0  0  0
 24 26  1  0  0  0  0
 25 26  1  0  0  0  0
 26 36  1  0  0  0  0
 27 33  1  0  0  0  0
 27 28  1  0  0  0  0
 28 40  1  0  0  0  0
 29 38  1  0  0  0  0
 29 30  1  0  0  0  0
 30 40  1  0  0  0  0
 34 42  1  0  0  0  0
 35 43  1  0  0  0  0
 36 44  1  0  0  0  0
 38 41  1  0  0  0  0
  1 45  1  0  0  0  0
  1 46  1  0  0  0  0
  1 47  1  0  0  0  0
  2 48  1  0  0  0  0
  3 49  1  0  0  0  0
  4 50  1  0  0  0  0
  5 51  1  0  0  0  0
  6 52  1  0  0  0  0
  7 53  1  0  0  0  0
  8 54  1  0  0  0  0
  9 55  1  0  0  0  0
 10 56  1  0  0  0  0
 11 57  1  0  0  0  0
 21 58  1  0  0  0  0
 21 59  1  0  0  0  0
 22 60  1  0  0  0  0
 22 61  1  0  0  0  0
 23 62  1  0  0  0  0
 23 63  1  0  0  0  0
 24 64  1  0  0  0  0
 24 65  1  0  0  0  0
 25 66  1  0  0  0  0
 25 67  1  0  0  0  0
 26 68  1  0  0  0  0
 27 69  1  0  0  0  0
 27 70  1  0  0  0  0
 28 71  1  0  0  0  0
 28 72  1  0  0  0  0
 29 73  1  0  0  0  0
 29 74  1  0  0  0  0
 30 75  1  0  0  0  0
 30 76  1  0  0  0  0
M  END
> <UNIQUE_SMILES>
Cc1cc(Nc2ncnc3ccn(CCOCCO)c23)ccc1Oc4cccc(NC(=O)NC5CCCCC5)c4

> <KDEEP_PKD>
7.4056243896484375

> <KDEEP_DG>
-10.0

$$$$
