C18H23N6O3S
APtclcactv01052013523D 0   0.00000     0.00000     1
 
 51 54  0  0  0  0  0  0  0  0999 V2000
   12.7230    3.1190    4.3510 N   0  0  0  0  0  0  0  0  0  0  0  0
   13.6730    3.9290    3.8600 C   0  0  0  0  0  0  0  0  0  0  0  0
   13.8870    5.1270    4.3970 N   0  0  0  0  0  0  0  0  0  0  0  0
   14.4120    3.5600    2.8040 N   0  0  0  0  0  0  0  0  0  0  0  0
   14.2120    2.3760    2.2070 C   0  0  0  0  0  0  0  0  0  0  0  0
   13.2350    1.5230    2.6990 C   0  0  0  0  0  0  0  0  0  0  0  0
   12.4880    1.9210    3.7970 C   0  0  0  0  0  0  0  0  0  0  0  0
   11.5320    1.0970    4.3070 O   0  0  0  0  0  0  0  0  0  0  0  0
   13.2440    0.4340    1.9370 N   0  0  0  0  0  0  0  0  0  0  0  0
   14.1800    0.5880    1.0050 C   0  0  0  0  0  0  0  0  0  0  0  0
   14.7750    1.7710    1.1670 N   0  0  0  0  0  0  0  0  0  0  0  0
   11.4060    1.3120    5.7220 C   0  0  0  0  0  0  0  0  0  0  0  0
   10.5400    0.2020    6.3190 C   0  0  0  0  0  0  0  0  0  0  0  0
    9.1550    0.1830    5.6710 C   0  0  0  0  0  0  0  0  0  0  0  0
    8.2930   -0.9290    6.2670 C   0  0  0  0  0  0  0  0  0  0  0  0
    8.1540   -0.7450    7.7790 C   0  0  0  0  0  0  0  0  0  0  0  0
    9.5350   -0.7230    8.4370 C   0  0  0  0  0  0  0  0  0  0  0  0
   10.3960    0.3900    7.8300 C   0  0  0  0  0  0  0  0  0  0  0  0
   13.1630    5.5760    5.4230 C   0  0  0  0  0  0  0  0  0  0  0  0
   13.4300    6.8340    5.9410 C   0  0  0  0  0  0  0  0  0  0  0  0
   12.6480    7.3480    6.9710 C   0  0  0  0  0  0  0  0  0  0  0  0
   11.5900    6.6050    7.4790 C   0  0  0  0  0  0  0  0  0  0  0  0
   11.3220    5.3420    6.9660 C   0  0  0  0  0  0  0  0  0  0  0  0
   12.1070    4.8290    5.9350 C   0  0  0  0  0  0  0  0  0  0  0  0
   10.5530    7.3110    8.7050 S   0  0  0  0  0  0  0  0  0  0  0  0
    9.5480    8.1910    8.0280 O   0  0  0  0  0  0  0  0  0  0  0  0
   11.3890    8.1640    9.6090 O   0  0  0  0  0  0  0  0  0  0  0  0
    9.8130    6.1460    9.5740 N   0  3  0  0  0  0  0  0  0  0  0  0
   10.0220    5.3570    8.9920 H   0  0  0  0  0  0  0  0  0  0  0  0
    8.8170    6.0600    9.5290 H   0  0  0  0  0  0  0  0  0  0  0  0
   10.3200    5.8460   10.3810 H   0  0  0  0  0  0  0  0  0  0  0  0
   14.6080    5.7070    4.0230 H   0  0  0  0  0  0  0  0  0  0  0  0
   12.6480   -0.3660    2.0460 H   0  0  0  0  0  0  0  0  0  0  0  0
   14.4242   -0.1489    0.2215 H   0  0  0  0  0  0  0  0  0  0  0  0
   11.0189    2.3292    5.9641 H   0  0  0  0  0  0  0  0  0  0  0  0
   12.3957    1.3971    6.2283 H   0  0  0  0  0  0  0  0  0  0  0  0
   11.0446   -0.7715    6.1167 H   0  0  0  0  0  0  0  0  0  0  0  0
    9.2199    0.1047    4.5606 H   0  0  0  0  0  0  0  0  0  0  0  0
    8.6532    1.1763    5.7403 H   0  0  0  0  0  0  0  0  0  0  0  0
    8.6823   -1.9407    6.0062 H   0  0  0  0  0  0  0  0  0  0  0  0
    7.3001   -0.9988    5.7645 H   0  0  0  0  0  0  0  0  0  0  0  0
    7.4882   -1.5155    8.2331 H   0  0  0  0  0  0  0  0  0  0  0  0
    7.5557    0.1603    8.0354 H   0  0  0  0  0  0  0  0  0  0  0  0
   10.0386   -1.7162    8.3800 H   0  0  0  0  0  0  0  0  0  0  0  0
    9.4656   -0.6367    9.5465 H   0  0  0  0  0  0  0  0  0  0  0  0
   10.0020    1.4016    8.0843 H   0  0  0  0  0  0  0  0  0  0  0  0
   11.3883    0.4648    8.3329 H   0  0  0  0  0  0  0  0  0  0  0  0
   14.2659    7.4268    5.5330 H   0  0  0  0  0  0  0  0  0  0  0  0
   12.8672    8.3463    7.3856 H   0  0  0  0  0  0  0  0  0  0  0  0
   10.4880    4.7480    7.3762 H   0  0  0  0  0  0  0  0  0  0  0  0
   11.8919    3.8287    5.5230 H   0  0  0  0  0  0  0  0  0  0  0  0
  1  7  1  0  0  0  0
  1  2  2  0  0  0  0
  2  3  1  0  0  0  0
  2  4  1  0  0  0  0
  3 32  1  0  0  0  0
  3 19  1  0  0  0  0
  4  5  2  0  0  0  0
  5 11  1  0  0  0  0
  5  6  1  0  0  0  0
  6  9  1  0  0  0  0
  6  7  2  0  0  0  0
  7  8  1  0  0  0  0
  8 12  1  0  0  0  0
  9 33  1  0  0  0  0
  9 10  1  0  0  0  0
 10 11  2  0  0  0  0
 12 13  1  0  0  0  0
 13 14  1  0  0  0  0
 13 18  1  0  0  0  0
 14 15  1  0  0  0  0
 15 16  1  0  0  0  0
 16 17  1  0  0  0  0
 17 18  1  0  0  0  0
 19 20  1  0  0  0  0
 19 24  2  0  0  0  0
 20 21  2  0  0  0  0
 21 22  1  0  0  0  0
 22 23  2  0  0  0  0
 22 25  1  0  0  0  0
 23 24  1  0  0  0  0
 25 26  2  0  0  0  0
 25 27  2  0  0  0  0
 25 28  1  0  0  0  0
 28 31  1  0  0  0  0
 28 30  1  0  0  0  0
 28 29  1  0  0  0  0
 10 34  1  0  0  0  0
 12 35  1  0  0  0  0
 12 36  1  0  0  0  0
 13 37  1  0  0  0  0
 14 38  1  0  0  0  0
 14 39  1  0  0  0  0
 15 40  1  0  0  0  0
 15 41  1  0  0  0  0
 16 42  1  0  0  0  0
 16 43  1  0  0  0  0
 17 44  1  0  0  0  0
 17 45  1  0  0  0  0
 18 46  1  0  0  0  0
 18 47  1  0  0  0  0
 20 48  1  0  0  0  0
 21 49  1  0  0  0  0
 23 50  1  0  0  0  0
 24 51  1  0  0  0  0
M  CHG  1  28   1
M  END
> <UNIQUE_SMILES>
[NH3+][S](=O)(=O)c1ccc(Nc2nc(OCC3CCCCC3)c4[nH]cnc4n2)cc1

> <KDEEP_PKD>
7.011991500854492

> <KDEEP_DG>
-9.47

$$$$
