C21H22FN6O
APtclcactv01052014033D 0   0.00000     0.00000     1
 
 51 55  0  0  0  0  0  0  0  0999 V2000
   -5.5620  -11.3110   14.4400 C   0  0  0  0  0  0  0  0  0  0  0  0
   -5.1310  -10.3410   13.4250 N   0  3  0  0  0  0  0  0  0  0  0  0
   -5.1410   -8.9850   13.9900 C   0  0  0  0  0  0  0  0  0  0  0  0
   -4.5300   -8.0070   12.9860 C   0  0  0  0  0  0  0  0  0  0  0  0
   -5.2030   -8.1550   11.6780 N   0  0  0  0  0  0  0  0  0  0  0  0
   -5.4660   -9.5070   11.1430 C   0  0  0  0  0  0  0  0  0  0  0  0
   -6.0280  -10.3920   12.2620 C   0  0  0  0  0  0  0  0  0  0  0  0
   -5.5600   -7.0240   10.9340 C   0  0  0  0  0  0  0  0  0  0  0  0
   -6.1550   -7.1700    9.6850 C   0  0  0  0  0  0  0  0  0  0  0  0
   -6.4630   -6.0450    8.9270 C   0  0  0  0  0  0  0  0  0  0  0  0
   -6.9960   -5.8860    7.7210 N   0  0  0  0  0  0  0  0  0  0  0  0
   -7.0470   -4.5830    7.4510 C   0  0  0  0  0  0  0  0  0  0  0  0
   -6.5520   -3.9060    8.4840 N   0  0  0  0  0  0  0  0  0  0  0  0
   -6.1770   -4.7770    9.4160 C   0  0  0  0  0  0  0  0  0  0  0  0
   -5.5870   -4.6270   10.6680 C   0  0  0  0  0  0  0  0  0  0  0  0
   -5.2820   -5.7530   11.4240 C   0  0  0  0  0  0  0  0  0  0  0  0
   -7.5230   -4.0400    6.2660 C   0  0  0  0  0  0  0  0  0  0  0  0
   -7.3290   -2.6930    5.9710 C   0  0  0  0  0  0  0  0  0  0  0  0
   -6.6610   -1.9610    6.8610 N   0  0  0  0  0  0  0  0  0  0  0  0
   -7.8080   -2.1590    4.7760 C   0  0  0  0  0  0  0  0  0  0  0  0
   -7.6300   -0.8150    4.4400 C   0  0  0  0  0  0  0  0  0  0  0  0
   -8.1130   -0.3200    3.2360 C   0  0  0  0  0  0  0  0  0  0  0  0
   -8.7860   -1.1540    2.3460 C   0  0  0  0  0  0  0  0  0  0  0  0
   -8.9670   -2.4900    2.6780 C   0  0  0  0  0  0  0  0  0  0  0  0
   -8.4820   -2.9840    3.8820 C   0  0  0  0  0  0  0  0  0  0  0  0
   -8.6820   -4.3380    4.1730 N   0  3  0  0  0  0  0  0  0  0  0  0
   -8.1960   -4.8660    5.3740 C   0  0  0  0  0  0  0  0  0  0  0  0
   -8.3660   -6.0520    5.6460 O   0  5  0  0  0  0  0  0  0  0  0  0
   -6.9860    0.0450    5.2540 F   0  0  0  0  0  0  0  0  0  0  0  0
   -4.1960  -10.5610   13.1460 H   0  0  0  0  0  0  0  0  0  0  0  0
   -7.3020   -6.6200    7.1170 H   0  0  0  0  0  0  0  0  0  0  0  0
   -9.1680   -4.9240    3.5290 H   0  0  0  0  0  0  0  0  0  0  0  0
   -6.3280   -2.3940    7.6970 H   0  0  0  0  0  0  0  0  0  0  0  0
   -6.4820   -0.9910    6.7160 H   0  0  0  0  0  0  0  0  0  0  0  0
   -4.8603  -11.3629   15.3049 H   0  0  0  0  0  0  0  0  0  0  0  0
   -5.4578  -12.3655   14.0930 H   0  0  0  0  0  0  0  0  0  0  0  0
   -6.6043  -11.0658   14.7510 H   0  0  0  0  0  0  0  0  0  0  0  0
   -4.6356   -8.9392   14.9828 H   0  0  0  0  0  0  0  0  0  0  0  0
   -6.1607   -8.6721   14.3149 H   0  0  0  0  0  0  0  0  0  0  0  0
   -3.4239   -8.1228   12.9056 H   0  0  0  0  0  0  0  0  0  0  0  0
   -4.5543   -6.9551   13.3551 H   0  0  0  0  0  0  0  0  0  0  0  0
   -4.5651   -9.9543   10.6619 H   0  0  0  0  0  0  0  0  0  0  0  0
   -6.1291   -9.4859   10.2469 H   0  0  0  0  0  0  0  0  0  0  0  0
   -7.0767  -10.1212   12.5267 H   0  0  0  0  0  0  0  0  0  0  0  0
   -6.2146  -11.4365   11.9194 H   0  0  0  0  0  0  0  0  0  0  0  0
   -6.3823   -8.1768    9.2961 H   0  0  0  0  0  0  0  0  0  0  0  0
   -5.3622   -3.6205   11.0592 H   0  0  0  0  0  0  0  0  0  0  0  0
   -4.8171   -5.6374   12.4175 H   0  0  0  0  0  0  0  0  0  0  0  0
   -7.9610    0.7432    2.9848 H   0  0  0  0  0  0  0  0  0  0  0  0
   -9.1709   -0.7612    1.3899 H   0  0  0  0  0  0  0  0  0  0  0  0
   -9.4981   -3.1615    1.9826 H   0  0  0  0  0  0  0  0  0  0  0  0
  1  2  1  0  0  0  0
  2 30  1  0  0  0  0
  2  3  1  0  0  0  0
  2  7  1  0  0  0  0
  3  4  1  0  0  0  0
  4  5  1  0  0  0  0
  5  8  1  0  0  0  0
  5  6  1  0  0  0  0
  6  7  1  0  0  0  0
  8 16  1  0  0  0  0
  8  9  2  0  0  0  0
  9 10  1  0  0  0  0
 10 11  1  0  0  0  0
 10 14  2  0  0  0  0
 11 31  1  0  0  0  0
 11 12  1  0  0  0  0
 12 13  2  0  0  0  0
 12 17  1  0  0  0  0
 13 14  1  0  0  0  0
 14 15  1  0  0  0  0
 15 16  2  0  0  0  0
 17 27  1  0  0  0  0
 17 18  2  0  0  0  0
 18 19  1  0  0  0  0
 18 20  1  0  0  0  0
 19 34  1  0  0  0  0
 19 33  1  0  0  0  0
 20 25  2  0  0  0  0
 20 21  1  0  0  0  0
 21 29  1  0  0  0  0
 21 22  2  0  0  0  0
 22 23  1  0  0  0  0
 23 24  2  0  0  0  0
 24 25  1  0  0  0  0
 25 26  1  0  0  0  0
 26 32  1  0  0  0  0
 26 27  2  0  0  0  0
 27 28  1  0  0  0  0
  1 35  1  0  0  0  0
  1 36  1  0  0  0  0
  1 37  1  0  0  0  0
  3 38  1  0  0  0  0
  3 39  1  0  0  0  0
  4 40  1  0  0  0  0
  4 41  1  0  0  0  0
  6 42  1  0  0  0  0
  6 43  1  0  0  0  0
  7 44  1  0  0  0  0
  7 45  1  0  0  0  0
  9 46  1  0  0  0  0
 15 47  1  0  0  0  0
 16 48  1  0  0  0  0
 22 49  1  0  0  0  0
 23 50  1  0  0  0  0
 24 51  1  0  0  0  0
M  CHG  3   2   1  26   1  28  -1
M  END
> <UNIQUE_SMILES>
C[NH+]1CCN(CC1)c2ccc3nc([nH]c3c2)c4c(N)c5c(F)cccc5[nH+]c4[O-]

> <KDEEP_PKD>
6.935644626617432

> <KDEEP_DG>
-9.36

$$$$
