C24H25N7O
APtclcactv01052014043D 0   0.00000     0.00000     1
 
 57 60  0  0  0  0  0  0  0  0999 V2000
    6.4700   -6.9530  -10.7770 N   0  0  0  0  0  0  0  0  0  0  0  0
    6.2570   -7.8710  -11.9190 C   0  0  0  0  0  0  0  0  0  0  0  0
    8.7120   -8.1960   -7.8690 O   0  0  0  0  0  0  0  0  0  0  0  0
    7.2580   -7.2160   -9.7460 C   0  0  0  0  0  0  0  0  0  0  0  0
    5.9370   -5.8510  -10.6680 N   0  0  0  0  0  0  0  0  0  0  0  0
    7.1780   -6.1600   -8.9440 C   0  0  0  0  0  0  0  0  0  0  0  0
    9.9410   -5.4290   -4.2380 N   0  0  0  0  0  0  0  0  0  0  0  0
    6.3490   -5.2990   -9.5310 C   0  0  0  0  0  0  0  0  0  0  0  0
    9.6260    0.2380   -0.7810 N   0  0  0  0  0  0  0  0  0  0  0  0
    7.8420   -5.9820   -7.7330 C   0  0  0  0  0  0  0  0  0  0  0  0
    8.2440   -1.1470   -3.6670 N   0  0  0  0  0  0  0  0  0  0  0  0
    7.7390   -4.7770   -7.0490 C   0  0  0  0  0  0  0  0  0  0  0  0
    9.1020   -3.2790   -3.9470 N   0  0  0  0  0  0  0  0  0  0  0  0
    8.4370   -4.5840   -5.8640 C   0  0  0  0  0  0  0  0  0  0  0  0
   11.5960   -7.9150   -9.5570 N   0  0  0  0  0  0  0  0  0  0  0  0
    9.2550   -5.5930   -5.3660 C   0  0  0  0  0  0  0  0  0  0  0  0
    9.8720   -4.3000   -3.5360 C   0  0  0  0  0  0  0  0  0  0  0  0
   10.6190   -4.1880   -2.3670 C   0  0  0  0  0  0  0  0  0  0  0  0
   10.5620   -3.0150   -1.6240 C   0  0  0  0  0  0  0  0  0  0  0  0
    9.7570   -1.9770   -2.0760 C   0  0  0  0  0  0  0  0  0  0  0  0
    9.6870   -0.7470   -1.3550 C   0  0  0  0  0  0  0  0  0  0  0  0
    9.0290   -2.1360   -3.2510 C   0  0  0  0  0  0  0  0  0  0  0  0
    7.4500   -1.2490   -4.9000 C   0  0  0  0  0  0  0  0  0  0  0  0
    6.0590   -0.6550   -4.6650 C   0  0  0  0  0  0  0  0  0  0  0  0
    5.2220   -0.7160   -5.9460 C   0  0  0  0  0  0  0  0  0  0  0  0
    5.9240    0.0400   -7.0740 C   0  0  0  0  0  0  0  0  0  0  0  0
    7.3220   -0.5400   -7.3120 C   0  0  0  0  0  0  0  0  0  0  0  0
    8.1470   -0.4850   -6.0240 C   0  0  0  0  0  0  0  0  0  0  0  0
    9.3570   -6.7970   -6.0510 C   0  0  0  0  0  0  0  0  0  0  0  0
    8.6520   -6.9970   -7.2320 C   0  0  0  0  0  0  0  0  0  0  0  0
   10.0060   -8.7950   -7.6940 C   0  0  0  0  0  0  0  0  0  0  0  0
   10.9040   -8.2970   -8.7390 C   0  0  0  0  0  0  0  0  0  0  0  0
   10.5220   -6.1720   -3.9090 H   0  0  0  0  0  0  0  0  0  0  0  0
    8.1650   -0.2930   -3.1540 H   0  0  0  0  0  0  0  0  0  0  0  0
    6.4972   -7.2996  -12.8458 H   0  0  0  0  0  0  0  0  0  0  0  0
    5.1571   -8.0306  -12.0082 H   0  0  0  0  0  0  0  0  0  0  0  0
    6.7406   -8.8708  -12.0179 H   0  0  0  0  0  0  0  0  0  0  0  0
    7.8581   -8.1278   -9.5877 H   0  0  0  0  0  0  0  0  0  0  0  0
    6.0565   -4.3079   -9.1452 H   0  0  0  0  0  0  0  0  0  0  0  0
    7.1008   -3.9707   -7.4481 H   0  0  0  0  0  0  0  0  0  0  0  0
    8.3418   -3.6300   -5.3187 H   0  0  0  0  0  0  0  0  0  0  0  0
   11.2535   -5.0253   -2.0308 H   0  0  0  0  0  0  0  0  0  0  0  0
   11.1446   -2.9099   -0.6933 H   0  0  0  0  0  0  0  0  0  0  0  0
    7.3518   -2.3219   -5.1872 H   0  0  0  0  0  0  0  0  0  0  0  0
    6.1154    0.3811   -4.2568 H   0  0  0  0  0  0  0  0  0  0  0  0
    5.5398   -1.1443   -3.8081 H   0  0  0  0  0  0  0  0  0  0  0  0
    4.1826   -0.3472   -5.7818 H   0  0  0  0  0  0  0  0  0  0  0  0
    4.9806   -1.7653   -6.2357 H   0  0  0  0  0  0  0  0  0  0  0  0
    5.9561    1.1379   -6.8821 H   0  0  0  0  0  0  0  0  0  0  0  0
    5.3148    0.0539   -8.0077 H   0  0  0  0  0  0  0  0  0  0  0  0
    7.8419   -0.0368   -8.1604 H   0  0  0  0  0  0  0  0  0  0  0  0
    7.2779   -1.5712   -7.7337 H   0  0  0  0  0  0  0  0  0  0  0  0
    9.1887   -0.8484   -6.1855 H   0  0  0  0  0  0  0  0  0  0  0  0
    8.3790    0.5644   -5.7273 H   0  0  0  0  0  0  0  0  0  0  0  0
   10.0019   -7.5993   -5.6547 H   0  0  0  0  0  0  0  0  0  0  0  0
    9.9593   -9.9087   -7.6684 H   0  0  0  0  0  0  0  0  0  0  0  0
   10.4146   -8.6332   -6.6693 H   0  0  0  0  0  0  0  0  0  0  0  0
  1  5  1  0  0  0  0
  1  4  1  0  0  0  0
  1  2  1  0  0  0  0
  3 30  1  0  0  0  0
  3 31  1  0  0  0  0
  4  6  2  0  0  0  0
  5  8  2  0  0  0  0
  6  8  1  0  0  0  0
  6 10  1  0  0  0  0
  7 33  1  0  0  0  0
  7 16  1  0  0  0  0
  7 17  1  0  0  0  0
  9 21  3  0  0  0  0
 10 12  1  0  0  0  0
 10 30  2  0  0  0  0
 11 34  1  0  0  0  0
 11 22  1  0  0  0  0
 11 23  1  0  0  0  0
 12 14  2  0  0  0  0
 13 22  1  0  0  0  0
 13 17  2  0  0  0  0
 14 16  1  0  0  0  0
 15 32  3  0  0  0  0
 16 29  2  0  0  0  0
 17 18  1  0  0  0  0
 18 19  2  0  0  0  0
 19 20  1  0  0  0  0
 20 22  2  0  0  0  0
 20 21  1  0  0  0  0
 23 28  1  0  0  0  0
 23 24  1  0  0  0  0
 24 25  1  0  0  0  0
 25 26  1  0  0  0  0
 26 27  1  0  0  0  0
 27 28  1  0  0  0  0
 29 30  1  0  0  0  0
 31 32  1  0  0  0  0
  2 35  1  0  0  0  0
  2 36  1  0  0  0  0
  2 37  1  0  0  0  0
  4 38  1  0  0  0  0
  8 39  1  0  0  0  0
 12 40  1  0  0  0  0
 14 41  1  0  0  0  0
 18 42  1  0  0  0  0
 19 43  1  0  0  0  0
 23 44  1  0  0  0  0
 24 45  1  0  0  0  0
 24 46  1  0  0  0  0
 25 47  1  0  0  0  0
 25 48  1  0  0  0  0
 26 49  1  0  0  0  0
 26 50  1  0  0  0  0
 27 51  1  0  0  0  0
 27 52  1  0  0  0  0
 28 53  1  0  0  0  0
 28 54  1  0  0  0  0
 29 55  1  0  0  0  0
 31 56  1  0  0  0  0
 31 57  1  0  0  0  0
M  END
> <UNIQUE_SMILES>
Cn1cc(cn1)c2ccc(Nc3ccc(C#N)c(NC4CCCCC4)n3)cc2OCC#N

> <KDEEP_PKD>
7.505273818969727

> <KDEEP_DG>
-10.13

$$$$
