C26H27N7O2
APtclcactv01052014043D 0   0.00000     0.00000     1
 
 62 66  0  0  0  0  0  0  0  0999 V2000
   10.9120    5.7600    3.7440 N   0  0  0  0  0  0  0  0  0  0  0  0
   10.7950    3.6350    2.7500 C   0  0  0  0  0  0  0  0  0  0  0  0
    8.9750   -0.1090    4.1430 O   0  0  0  0  0  0  0  0  0  0  0  0
   11.1890    4.9650    2.7270 C   0  0  0  0  0  0  0  0  0  0  0  0
    9.8550    1.8670    3.5960 N   0  0  0  0  0  0  0  0  0  0  0  0
    8.7130    1.5730    5.5980 O   0  0  0  0  0  0  0  0  0  0  0  0
   10.2430    5.3300    4.8250 C   0  0  0  0  0  0  0  0  0  0  0  0
   10.2960   -1.1780    0.2430 N   0  0  0  0  0  0  0  0  0  0  0  0
    9.8210    4.0080    4.9040 C   0  0  0  0  0  0  0  0  0  0  0  0
   10.0840   -1.7770    1.2990 N   0  0  0  0  0  0  0  0  0  0  0  0
   10.1030    3.1520    3.8490 C   0  0  0  0  0  0  0  0  0  0  0  0
   10.0040    6.2050    5.8010 N   0  0  0  0  0  0  0  0  0  0  0  0
   10.3580    1.5400    2.4070 C   0  0  0  0  0  0  0  0  0  0  0  0
    6.9730    5.8640   11.4150 N   0  0  0  0  0  0  0  0  0  0  0  0
   10.9300    2.6270    1.8970 C   0  0  0  0  0  0  0  0  0  0  0  0
    6.3570    3.8950   12.0600 N   0  0  0  0  0  0  0  0  0  0  0  0
   10.2940    0.3150    1.7550 C   0  0  0  0  0  0  0  0  0  0  0  0
   10.4380    0.1270    0.4470 C   0  0  0  0  0  0  0  0  0  0  0  0
   10.0790   -0.8830    2.2860 C   0  0  0  0  0  0  0  0  0  0  0  0
   10.3620   -1.8280   -1.0850 C   0  0  0  0  0  0  0  0  0  0  0  0
    9.1840    1.0740    4.4220 C   0  0  0  0  0  0  0  0  0  0  0  0
    8.0300    0.5470    6.3360 C   0  0  0  0  0  0  0  0  0  0  0  0
    7.5970    1.1030    7.6950 C   0  0  0  0  0  0  0  0  0  0  0  0
    6.8010    0.0710    5.5610 C   0  0  0  0  0  0  0  0  0  0  0  0
    9.3530    5.8860    6.9140 C   0  0  0  0  0  0  0  0  0  0  0  0
    8.8660    4.6040    7.1450 C   0  0  0  0  0  0  0  0  0  0  0  0
    8.1870    4.3110    8.3230 C   0  0  0  0  0  0  0  0  0  0  0  0
    7.9960    5.2990    9.2800 C   0  0  0  0  0  0  0  0  0  0  0  0
    8.4770    6.5840    9.0540 C   0  0  0  0  0  0  0  0  0  0  0  0
    9.1560    6.8730    7.8750 C   0  0  0  0  0  0  0  0  0  0  0  0
    7.3340    5.0020   10.4680 C   0  0  0  0  0  0  0  0  0  0  0  0
    6.3800    5.1840   12.3900 C   0  0  0  0  0  0  0  0  0  0  0  0
    6.9480    3.7960   10.8740 C   0  0  0  0  0  0  0  0  0  0  0  0
    5.8080    5.7850   13.6810 C   0  0  0  0  0  0  0  0  0  0  0  0
    7.1860    7.3260   11.3950 C   0  0  0  0  0  0  0  0  0  0  0  0
   10.3260    7.1430    5.6870 H   0  0  0  0  0  0  0  0  0  0  0  0
   11.7379    5.4026    1.8762 H   0  0  0  0  0  0  0  0  0  0  0  0
    9.2717    3.6444    5.7887 H   0  0  0  0  0  0  0  0  0  0  0  0
   11.4372    2.6837    0.9192 H   0  0  0  0  0  0  0  0  0  0  0  0
   10.6356    0.8988   -0.3158 H   0  0  0  0  0  0  0  0  0  0  0  0
    9.9238   -1.0974    3.3568 H   0  0  0  0  0  0  0  0  0  0  0  0
    9.4111   -2.3949   -1.2176 H   0  0  0  0  0  0  0  0  0  0  0  0
   11.1230   -2.6397   -1.0127 H   0  0  0  0  0  0  0  0  0  0  0  0
   10.5538   -1.2861   -2.0404 H   0  0  0  0  0  0  0  0  0  0  0  0
    8.7191   -0.3167    6.4858 H   0  0  0  0  0  0  0  0  0  0  0  0
    6.9859    2.0304    7.5966 H   0  0  0  0  0  0  0  0  0  0  0  0
    8.4513    1.5361    8.2657 H   0  0  0  0  0  0  0  0  0  0  0  0
    7.0669    0.3067    8.2678 H   0  0  0  0  0  0  0  0  0  0  0  0
    7.0615   -0.2609    4.5289 H   0  0  0  0  0  0  0  0  0  0  0  0
    6.1228    0.9152    5.2952 H   0  0  0  0  0  0  0  0  0  0  0  0
    6.2709   -0.7253    6.1338 H   0  0  0  0  0  0  0  0  0  0  0  0
    9.0192    3.8150    6.3896 H   0  0  0  0  0  0  0  0  0  0  0  0
    7.7993    3.2934    8.4986 H   0  0  0  0  0  0  0  0  0  0  0  0
    8.3202    7.3729    9.8088 H   0  0  0  0  0  0  0  0  0  0  0  0
    9.5409    7.8919    7.7009 H   0  0  0  0  0  0  0  0  0  0  0  0
    7.0954    2.8577   10.3132 H   0  0  0  0  0  0  0  0  0  0  0  0
    5.0923    6.5812   13.3696 H   0  0  0  0  0  0  0  0  0  0  0  0
    6.6357    6.3620   14.1555 H   0  0  0  0  0  0  0  0  0  0  0  0
    5.3103    5.2142   14.4994 H   0  0  0  0  0  0  0  0  0  0  0  0
    7.7280    7.5811   12.3355 H   0  0  0  0  0  0  0  0  0  0  0  0
    6.1858    7.7949   11.5467 H   0  0  0  0  0  0  0  0  0  0  0  0
    7.6837    7.8968   10.5766 H   0  0  0  0  0  0  0  0  0  0  0  0
  1  4  1  0  0  0  0
  1  7  2  0  0  0  0
  2 15  1  0  0  0  0
  2 11  1  0  0  0  0
  2  4  2  0  0  0  0
  3 21  2  0  0  0  0
  5 21  1  0  0  0  0
  5 13  1  0  0  0  0
  5 11  1  0  0  0  0
  6 21  1  0  0  0  0
  6 22  1  0  0  0  0
  7 12  1  0  0  0  0
  7  9  1  0  0  0  0
  8 10  1  0  0  0  0
  8 18  1  0  0  0  0
  8 20  1  0  0  0  0
  9 11  2  0  0  0  0
 10 19  2  0  0  0  0
 12 36  1  0  0  0  0
 12 25  1  0  0  0  0
 13 15  2  0  0  0  0
 13 17  1  0  0  0  0
 14 32  1  0  0  0  0
 14 31  1  0  0  0  0
 14 35  1  0  0  0  0
 16 33  1  0  0  0  0
 16 32  2  0  0  0  0
 17 19  1  0  0  0  0
 17 18  2  0  0  0  0
 22 24  1  0  0  0  0
 22 23  1  0  0  0  0
 25 26  1  0  0  0  0
 25 30  2  0  0  0  0
 26 27  2  0  0  0  0
 27 28  1  0  0  0  0
 28 29  2  0  0  0  0
 28 31  1  0  0  0  0
 29 30  1  0  0  0  0
 31 33  2  0  0  0  0
 32 34  1  0  0  0  0
  4 37  1  0  0  0  0
  9 38  1  0  0  0  0
 15 39  1  0  0  0  0
 18 40  1  0  0  0  0
 19 41  1  0  0  0  0
 20 42  1  0  0  0  0
 20 43  1  0  0  0  0
 20 44  1  0  0  0  0
 22 45  1  0  0  0  0
 23 46  1  0  0  0  0
 23 47  1  0  0  0  0
 23 48  1  0  0  0  0
 24 49  1  0  0  0  0
 24 50  1  0  0  0  0
 24 51  1  0  0  0  0
 26 52  1  0  0  0  0
 27 53  1  0  0  0  0
 29 54  1  0  0  0  0
 30 55  1  0  0  0  0
 33 56  1  0  0  0  0
 34 57  1  0  0  0  0
 34 58  1  0  0  0  0
 34 59  1  0  0  0  0
 35 60  1  0  0  0  0
 35 61  1  0  0  0  0
 35 62  1  0  0  0  0
M  END
> <UNIQUE_SMILES>
CC(C)OC(=O)n1c2cc(Nc3ccc(cc3)c4cnc(C)n4C)ncc2cc1c5cnn(C)c5

> <KDEEP_PKD>
8.172223091125488

> <KDEEP_DG>
-11.03

$$$$
