C24H28N5O3
APtclcactv01052014103D 0   0.00000     0.00000     1
 
 60 63  0  0  0  0  0  0  0  0999 V2000
    4.2690    9.2490   13.0840 C   0  0  0  0  0  0  0  0  0  0  0  0
    4.7300    8.3700   11.9980 N   0  3  0  0  0  0  0  0  0  0  0  0
    5.8130    9.0280   11.2530 C   0  0  0  0  0  0  0  0  0  0  0  0
    6.2900    8.1050   10.1280 C   0  0  0  0  0  0  0  0  0  0  0  0
    6.7900    6.8470   10.7020 N   0  0  0  0  0  0  0  0  0  0  0  0
    5.7110    6.1900   11.4520 C   0  0  0  0  0  0  0  0  0  0  0  0
    5.2320    7.1150   12.5720 C   0  0  0  0  0  0  0  0  0  0  0  0
    7.2310    6.0590    9.7280 C   0  0  0  0  0  0  0  0  0  0  0  0
    8.2520    6.4960    8.8980 C   0  0  0  0  0  0  0  0  0  0  0  0
    8.7080    5.6840    7.8650 C   0  0  0  0  0  0  0  0  0  0  0  0
    8.1420    4.4320    7.6640 C   0  0  0  0  0  0  0  0  0  0  0  0
    7.1200    3.9910    8.4960 C   0  0  0  0  0  0  0  0  0  0  0  0
    6.6630    4.8070    9.5230 C   0  0  0  0  0  0  0  0  0  0  0  0
    8.5880    3.6670    6.6660 N   0  0  0  0  0  0  0  0  0  0  0  0
    8.0540    2.4700    6.4520 C   0  0  0  0  0  0  0  0  0  0  0  0
    7.1470    1.9820    7.1320 O   0  0  0  0  0  0  0  0  0  0  0  0
    8.6520    1.6870    5.2770 C   0  0  0  0  0  0  0  0  0  0  0  0
    8.2030    0.3970    5.0070 C   0  0  0  0  0  0  0  0  0  0  0  0
    8.7780   -0.3320    3.9730 C   0  0  0  0  0  0  0  0  0  0  0  0
    9.7970    0.2150    3.2040 C   0  0  0  0  0  0  0  0  0  0  0  0
   10.2450    1.5130    3.4690 N   0  3  0  0  0  0  0  0  0  0  0  0
    9.6680    2.2500    4.5120 C   0  0  0  0  0  0  0  0  0  0  0  0
   10.0560    3.3970    4.7380 O   0  5  0  0  0  0  0  0  0  0  0  0
    7.1910   -0.1000    5.7180 N   0  0  0  0  0  0  0  0  0  0  0  0
    6.7120   -1.3240    5.5180 C   0  0  0  0  0  0  0  0  0  0  0  0
    7.2610   -2.1810    4.5720 C   0  0  0  0  0  0  0  0  0  0  0  0
    6.7520   -3.4620    4.3990 C   0  0  0  0  0  0  0  0  0  0  0  0
    5.6880   -3.8970    5.1810 C   0  0  0  0  0  0  0  0  0  0  0  0
    5.1380   -3.0460    6.1300 C   0  0  0  0  0  0  0  0  0  0  0  0
    5.6460   -1.7620    6.2970 C   0  0  0  0  0  0  0  0  0  0  0  0
    5.0910   -0.9300    7.2170 O   0  0  0  0  0  0  0  0  0  0  0  0
    5.7590   -1.0760    8.4750 C   0  0  0  0  0  0  0  0  0  0  0  0
    3.9760    8.1640   11.3760 H   0  0  0  0  0  0  0  0  0  0  0  0
    9.3280    4.0220    6.0910 H   0  0  0  0  0  0  0  0  0  0  0  0
    6.7690    0.4750    6.4180 H   0  0  0  0  0  0  0  0  0  0  0  0
   10.9770    1.9130    2.9200 H   0  0  0  0  0  0  0  0  0  0  0  0
    3.3911    8.8208   13.6217 H   0  0  0  0  0  0  0  0  0  0  0  0
    3.7869   10.1754   12.6933 H   0  0  0  0  0  0  0  0  0  0  0  0
    5.1106    9.4789   13.7783 H   0  0  0  0  0  0  0  0  0  0  0  0
    6.6483    9.3490   11.9182 H   0  0  0  0  0  0  0  0  0  0  0  0
    5.5150   10.0340   10.8757 H   0  0  0  0  0  0  0  0  0  0  0  0
    7.0448    8.5972    9.4713 H   0  0  0  0  0  0  0  0  0  0  0  0
    5.4991    7.9327    9.3612 H   0  0  0  0  0  0  0  0  0  0  0  0
    6.0134    5.1871   11.8341 H   0  0  0  0  0  0  0  0  0  0  0  0
    4.8759    5.8629   10.7895 H   0  0  0  0  0  0  0  0  0  0  0  0
    4.4776    6.6227   13.2291 H   0  0  0  0  0  0  0  0  0  0  0  0
    6.0227    7.2907   13.3382 H   0  0  0  0  0  0  0  0  0  0  0  0
    8.7017    7.4901    9.0596 H   0  0  0  0  0  0  0  0  0  0  0  0
    9.5194    6.0333    7.2045 H   0  0  0  0  0  0  0  0  0  0  0  0
    6.6723    2.9949    8.3415 H   0  0  0  0  0  0  0  0  0  0  0  0
    5.8463    4.4596   10.1779 H   0  0  0  0  0  0  0  0  0  0  0  0
    8.4223   -1.3543    3.7607 H   0  0  0  0  0  0  0  0  0  0  0  0
   10.2470   -0.3768    2.3892 H   0  0  0  0  0  0  0  0  0  0  0  0
    8.1084   -1.8414    3.9529 H   0  0  0  0  0  0  0  0  0  0  0  0
    7.1920   -4.1327    3.6419 H   0  0  0  0  0  0  0  0  0  0  0  0
    5.2816   -4.9139    5.0490 H   0  0  0  0  0  0  0  0  0  0  0  0
    4.2955   -3.3908    6.7528 H   0  0  0  0  0  0  0  0  0  0  0  0
    6.8598   -0.9236    8.3839 H   0  0  0  0  0  0  0  0  0  0  0  0
    5.7695   -2.1355    8.8222 H   0  0  0  0  0  0  0  0  0  0  0  0
    5.3036   -0.3933    9.2299 H   0  0  0  0  0  0  0  0  0  0  0  0
  1  2  1  0  0  0  0
  2 33  1  0  0  0  0
  2  7  1  0  0  0  0
  2  3  1  0  0  0  0
  3  4  1  0  0  0  0
  4  5  1  0  0  0  0
  5  8  1  0  0  0  0
  5  6  1  0  0  0  0
  6  7  1  0  0  0  0
  8  9  1  0  0  0  0
  8 13  2  0  0  0  0
  9 10  2  0  0  0  0
 10 11  1  0  0  0  0
 11 14  1  0  0  0  0
 11 12  2  0  0  0  0
 12 13  1  0  0  0  0
 14 34  1  0  0  0  0
 14 15  1  0  0  0  0
 15 16  2  0  0  0  0
 15 17  1  0  0  0  0
 17 22  1  0  0  0  0
 17 18  2  0  0  0  0
 18 24  1  0  0  0  0
 18 19  1  0  0  0  0
 19 20  2  0  0  0  0
 20 21  1  0  0  0  0
 21 36  1  0  0  0  0
 21 22  2  0  0  0  0
 22 23  1  0  0  0  0
 24 35  1  0  0  0  0
 24 25  1  0  0  0  0
 25 26  1  0  0  0  0
 25 30  2  0  0  0  0
 26 27  2  0  0  0  0
 27 28  1  0  0  0  0
 28 29  2  0  0  0  0
 29 30  1  0  0  0  0
 30 31  1  0  0  0  0
 31 32  1  0  0  0  0
  1 37  1  0  0  0  0
  1 38  1  0  0  0  0
  1 39  1  0  0  0  0
  3 40  1  0  0  0  0
  3 41  1  0  0  0  0
  4 42  1  0  0  0  0
  4 43  1  0  0  0  0
  6 44  1  0  0  0  0
  6 45  1  0  0  0  0
  7 46  1  0  0  0  0
  7 47  1  0  0  0  0
  9 48  1  0  0  0  0
 10 49  1  0  0  0  0
 12 50  1  0  0  0  0
 13 51  1  0  0  0  0
 19 52  1  0  0  0  0
 20 53  1  0  0  0  0
 26 54  1  0  0  0  0
 27 55  1  0  0  0  0
 28 56  1  0  0  0  0
 29 57  1  0  0  0  0
 32 58  1  0  0  0  0
 32 59  1  0  0  0  0
 32 60  1  0  0  0  0
M  CHG  3   2   1  21   1  23  -1
M  END
> <UNIQUE_SMILES>
COc1ccccc1Nc2cc[nH+]c([O-])c2C(=O)Nc3ccc(cc3)N4CC[NH+](C)CC4

> <KDEEP_PKD>
6.853773593902588

> <KDEEP_DG>
-9.25

$$$$
