@<TRIPOS>MOLECULE
1xh4_w_Lig.pdb
 41 44 0 0 0
SMALL
GASTEIGER

@<TRIPOS>ATOM
      1  N11        7.7040    8.8980    1.0990 N.ar    1  R691       -0.2423
      2  C12        8.3480    7.8680    0.5790 C.ar    1  R691        0.0990
      3  C13        8.2460    6.6040    1.1470 C.ar    1  R691        0.0252
      4  C14        7.4490    6.4330    2.2710 C.ar    1  R691        0.0564
      5  C15        6.7850    7.5380    2.7920 C.ar    1  R691        0.0252
      6  C16        6.9410    8.7710    2.1710 C.ar    1  R691        0.0990
      7  C21        7.3020    5.0530    2.9170 C.2     1  R691        0.2459
      8  O22        8.0280    4.1180    2.5840 O.2     1  R691       -0.2701
      9  N23        6.3610    4.9560    3.8530 N.am    1  R691       -0.3030
     10  C31        6.1060    3.6890    4.5520 C.3     1  R691        0.0685
     11  C32        4.6450    3.6780    5.0050 C.3     1  R691       -0.0600
     12  N33        4.3900    2.5130    5.8660 N.4     1  R691        0.3849
     13  C34        4.3120    2.9720    7.2620 C.3     1  R691       -0.0816
     14  C35        5.7170    3.1860    7.8360 C.3     1  R691       -0.0216
     15  C36        6.5680    4.1620    7.0210 C.3     1  R691        0.0190
     16  C37        7.0850    3.5460    5.7180 C.3     1  R691        0.0875
     17  N41        7.4340    2.1360    5.9420 N.am    1  R691       -0.3009
     18  C42        8.5480    1.7940    6.5790 C.2     1  R691        0.2458
     19  O43        9.3500    2.6070    7.0400 O.2     1  R691       -0.2701
     20  C51        8.7860    0.2910    6.7380 C.ar    1  R691        0.0534
     21  C52        9.9850   -0.1690    7.2670 C.ar    1  R691        0.0046
     22  C53       10.2040   -1.5330    7.4120 C.ar    1  R691        0.0030
     23  C54        9.2250   -2.4420    7.0300 C.ar    1  R691        0.0355
     24  C55        8.0290   -1.9820    6.4940 C.ar    1  R691        0.0030
     25  C56        7.8080   -0.6180    6.3480 C.ar    1  R691        0.0046
     26  C61        9.4470   -3.9360    7.2600 C.2     1  R691        0.1841
     27  O62       10.3170   -4.3130    8.0450 O.2     1  R691       -0.2905
     28  C71        8.5840   -4.9670    6.5270 C.3     1  R691        0.1466
     29  C72        8.0680   -4.6960    5.2640 C.2     1  R691        0.1842
     30  C73        7.3120   -5.6520    4.6000 C.2     1  R691        0.0395
     31  C74        7.0780   -6.8910    5.1910 C.2     1  R691        0.0172
     32  C75        7.5920   -7.1630    6.4530 C.2     1  R691        0.0446
     33  C76        8.3420   -6.2040    7.1180 C.2     1  R691        0.0035
     34  O92        8.2880   -3.6110    4.7250 O.2     1  R691       -0.2905
     35  N95        7.3490   -8.3370    7.0270 N.pl3   1  R691       -0.3043
     36  C98        7.8900   -8.6340    8.3620 C.3     1  R691        0.1122
     37  C99        6.5310   -9.3400    6.3280 C.3     1  R691        0.1122
     38  HAA        5.1410    1.8570    5.7820 H       1  R691       -0.0844
     39  HAB        3.5310    2.0710    5.6060 H       1  R691       -0.0844
     40  HAC        5.7870    5.7250    4.1380 H       1  R691        0.1497
     41  HAD        6.7800    1.4730    5.5850 H       1  R691        0.1497
@<TRIPOS>BOND
     1     2     1   ar
     2     2     3   ar
     3     1     6   ar
     4     3     4   ar
     5     6     5   ar
     6     4     5   ar
     7     4     7    1
     8     8     7    2
     9     7     9   am
    10     9    40    1
    11     9    10    1
    12    10    11    1
    13    10    16    1
    14    30    31    2
    15    30    29    1
    16    34    29    2
    17    11    12    1
    18    31    32    1
    19    29    28    1
    20    41    17    1
    21    39    12    1
    22    16    17    1
    23    16    15    1
    24    38    12    1
    25    12    13    1
    26    17    18   am
    27    37    35    1
    28    25    24   ar
    29    25    20   ar
    30    32    35    1
    31    32    33    2
    32    24    23   ar
    33    28    33    1
    34    28    26    1
    35    18    20    1
    36    18    19    2
    37    20    21   ar
    38    15    14    1
    39    35    36    1
    40    23    26    1
    41    23    22   ar
    42    26    27    2
    43    13    14    1
    44    21    22   ar
