@<TRIPOS>MOLECULE
2ito_w_Lig.pdb
 33 36 0 0 0
SMALL
GASTEIGER

@<TRIPOS>ATOM
      1  CAA        9.3020    7.4860    7.8130 C.3     1  IRE1        0.2526
      2  CAD        7.1020   -2.4440    4.3950 C.ar    1  IRE1        0.0306
      3  CAE        7.1110   -1.2770    5.1510 C.ar    1  IRE1        0.0169
      4  CAG        8.4210   -0.1860    3.4570 C.ar    1  IRE1        0.0126
      5  CAH        8.9110    5.5400    6.0750 C.ar    1  IRE1        0.0593
      6  CAI        7.5820    3.2610    6.9630 C.ar    1  IRE1        0.0443
      7  CAJ        4.6000    3.9110    9.7680 C.3     1  IRE1        0.0246
      8  CAK        5.6650    3.5770    8.7280 C.3     1  IRE1        0.2034
      9  CAL        3.5730    4.5260   14.5120 C.3     1  IRE1        0.1194
     10  CAM        2.0080    3.4290   13.1470 C.3     1  IRE1        0.1194
     11  CAN        5.1720    3.8890   11.1850 C.3     1  IRE1       -0.0733
     12  CAO        4.6870    4.2580   13.5010 C.3     1  IRE1       -0.0446
     13  CAP        3.0890    3.1430   12.1010 C.3     1  IRE1       -0.0446
     14  CAW        7.7510   -2.4840    3.1670 C.ar    1  IRE1        0.1362
     15  CAX        8.4090   -1.3510    2.6980 C.ar    1  IRE1        0.0068
     16  CAY        7.7670   -0.1420    4.6830 C.ar    1  IRE1        0.0492
     17  CAZ        8.1780    5.5770    7.2550 C.ar    1  IRE1        0.1739
     18  NAS        7.7460    0.9760    5.4070 N.pl3   1  IRE1       -0.2979
     19  OAT        8.1060    6.7260    7.9820 O.3     1  IRE1       -0.4683
     20  OAU        2.6020    3.4730   14.4550 O.3     1  IRE1       -0.3582
     21  OAV        6.7630    4.4920    8.8320 O.3     1  IRE1       -0.4725
     22  CBA        7.5170    4.4380    7.7000 C.ar    1  IRE1        0.1724
     23  NBE        4.1090    4.1990   12.1520 N.4     1  IRE1        0.3904
     24  CL         9.2090   -1.3860    1.1630 C.3     1  IRE1        0.0334
     25  N1         9.0530    2.1140    3.8510 N.ar    1  IRE1       -0.2089
     26  C2         9.6690    3.2110    3.4570 C.ar    1  IRE1        0.2000
     27  N3         9.6390    4.3220    4.1720 N.ar    1  IRE1       -0.2238
     28  C4         8.9700    4.3670    5.3340 C.ar    1  IRE1        0.0890
     29  C5         8.3110    3.2270    5.7790 C.ar    1  IRE1        0.0526
     30  C6         8.3670    2.0810    5.0010 C.ar    1  IRE1        0.1354
     31  FAB        7.7410   -3.6120    2.4340 F       1  IRE1       -0.2045
     32  HAA        3.7050    5.0830   11.9260 H       1  IRE1       -0.0795
     33  HAB        7.2510    0.9830    6.2750 H       1  IRE1        0.1536
@<TRIPOS>BOND
     1    24    15    1
     2    31    14    1
     3    15    14   ar
     4    15     4   ar
     5    14     2   ar
     6     4    16   ar
     7    26    25   ar
     8    26    27   ar
     9    25    30   ar
    10    27    28   ar
    11     2     3   ar
    12    16     3   ar
    13    16    18    1
    14    30    18    1
    15    30    29   ar
    16    28    29   ar
    17    28     5   ar
    18    18    33    1
    19    29     6   ar
    20     5    17   ar
    21     6    22   ar
    22    17    22   ar
    23    17    19    1
    24    22    21    1
    25     1    19    1
    26     8    21    1
    27     8     7    1
    28     7    11    1
    29    11    23    1
    30    32    23    1
    31    13    23    1
    32    13    10    1
    33    23    12    1
    34    10    20    1
    35    12     9    1
    36    20     9    1
