@<TRIPOS>MOLECULE
2itp_w_Lig.pdb
 37 41 0 0 0
SMALL
GASTEIGER

@<TRIPOS>ATOM
      1  CAA        4.7490   13.7370    9.7180 C.3     1  AEE1       -0.0250
      2  CAB        6.6490   -0.1910    5.5480 C.3     1  AEE1        0.0261
      3  CAC       11.2970   -1.1520    3.8890 C.ar    1  AEE1       -0.0000
      4  CAD       11.1840   -0.2390    4.9310 C.ar    1  AEE1       -0.0003
      5  CAE       10.1860   -1.4550    3.1100 C.ar    1  AEE1       -0.0003
      6  CAG        9.9650    0.3770    5.1870 C.ar    1  AEE1       -0.0027
      7  CAH        8.9680   -0.8380    3.3660 C.ar    1  AEE1       -0.0027
      8  CAI        8.7360    8.8430    9.0840 C.ar    1  AEE1       -0.0063
      9  CAJ        7.3230    7.1630   10.0720 C.ar    1  AEE1       -0.0063
     10  CAK        9.0040    7.9910    8.0200 C.ar    1  AEE1        0.0010
     11  CAL        7.5920    6.3130    9.0050 C.ar    1  AEE1        0.0010
     12  CAM        8.1950    4.6590    6.7470 C.ar    1  AEE1        0.0228
     13  CAN        5.0990   13.0260   11.0270 C.3     1  AEE1       -0.0776
     14  CAO        6.7590   11.7140    9.8810 C.3     1  AEE1       -0.1008
     15  CAP        6.8330   11.9250   12.2690 C.3     1  AEE1       -0.1008
     16  CAQ        5.8970   10.4590   10.0130 C.3     1  AEE1       -0.1003
     17  CAR        5.9570   10.6780   12.4090 C.3     1  AEE1       -0.1003
     18  CAS        7.6120    9.3670   11.2890 C.3     1  AEE1       -0.0501
     19  CAX        7.8960    8.4310   10.1130 C.ar    1  AEE1       -0.0432
     20  CAY        8.4340    6.7270    7.9810 C.ar    1  AEE1        0.0156
     21  CAZ        8.8590    0.0840    4.4000 C.ar    1  AEE1       -0.0045
     22  NAV        7.7140    2.0110    5.4080 N.pl3   1  AEE1       -0.3159
     23  NAW        9.4760    6.1790    5.8740 N.ar    1  AEE1       -0.3384
     24  CBA        8.6940    5.8810    6.9090 C.ar    1  AEE1        0.0578
     25  CBE        7.5080    0.7460    4.6930 C.3     1  AEE1        0.0930
     26  NBF        6.5060   12.6140   11.0140 N.4     1  AEE1        0.3841
     27  NBG        6.1980    9.7740   11.2770 N.4     1  AEE1        0.3868
     28  N1         9.0940    2.8160    3.7300 N.ar    1  AEE1       -0.2091
     29  C2         9.8640    3.7640    3.2280 C.ar    1  AEE1        0.2014
     30  N3        10.0630    4.9090    3.8600 N.ar    1  AEE1       -0.2067
     31  C4         9.4780    5.1400    5.0400 C.ar    1  AEE1        0.1450
     32  C5         8.6540    4.1730    5.5980 C.ar    1  AEE1        0.0668
     33  C6         8.4730    2.9800    4.9070 C.ar    1  AEE1        0.1333
     34  HAA        7.0770   13.4250   10.9100 H       1  AEE1       -0.0799
     35  HAB        5.6240    8.9630   11.3580 H       1  AEE1       -0.0794
     36  HAC        7.2550    2.1090    6.2910 H       1  AEE1        0.1484
     37  HAD        9.9800    7.0340    5.7460 H       1  AEE1        0.1674
@<TRIPOS>BOND
     1     5     7   ar
     2     5     3   ar
     3    29    28   ar
     4    29    30   ar
     5     7    21   ar
     6    28    33   ar
     7    30    31   ar
     8     3     4   ar
     9    21    25    1
    10    21     6   ar
    11    25    22    1
    12    25     2    1
    13    33    22    1
    14    33    32   ar
    15     4     6   ar
    16    31    32   ar
    17    31    23   ar
    18    22    36    1
    19    32    12   ar
    20    37    23    1
    21    23    24   ar
    22    12    24   ar
    23    24    20    1
    24    20    10   ar
    25    20    11   ar
    26    10     8   ar
    27    11     9   ar
    28     8    19   ar
    29     1    13    1
    30    14    16    1
    31    14    26    1
    32    16    27    1
    33     9    19   ar
    34    19    18    1
    35    34    26    1
    36    26    13    1
    37    26    15    1
    38    27    18    1
    39    27    35    1
    40    27    17    1
    41    15    17    1
