@<TRIPOS>MOLECULE
2itt_w_Lig.pdb
 37 41 0 0 0
SMALL
GASTEIGER

@<TRIPOS>ATOM
      1  CAA        1.1270   10.0170   13.2590 C.3     1  AEE1       -0.0250
      2  CAB        6.1560   -0.8000    5.6780 C.3     1  AEE1        0.0261
      3  CAC       11.0070   -1.6790    4.6620 C.ar    1  AEE1       -0.0000
      4  CAD       10.5250   -1.2130    5.8810 C.ar    1  AEE1       -0.0003
      5  CAE       10.2220   -1.5750    3.5200 C.ar    1  AEE1       -0.0003
      6  CAG        9.2650   -0.6330    5.9520 C.ar    1  AEE1       -0.0027
      7  CAH        8.9630   -0.9950    3.5930 C.ar    1  AEE1       -0.0027
      8  CAI        7.4950    8.4560    8.9500 C.ar    1  AEE1       -0.0063
      9  CAJ        6.0870    6.7430    9.8870 C.ar    1  AEE1       -0.0063
     10  CAK        7.9610    7.5530    7.9990 C.ar    1  AEE1        0.0010
     11  CAL        6.5520    5.8390    8.9370 C.ar    1  AEE1        0.0010
     12  CAM        7.4550    4.1210    6.8360 C.ar    1  AEE1        0.0228
     13  CAN        1.7370    9.2290   12.1000 C.3     1  AEE1       -0.0776
     14  CAO        3.9910    9.7460   12.7790 C.3     1  AEE1       -0.1008
     15  CAP        3.5500    7.7670   11.4770 C.3     1  AEE1       -0.1008
     16  CAQ        4.2380   10.5360   11.4930 C.3     1  AEE1       -0.1003
     17  CAR        3.7940    8.5610   10.1930 C.3     1  AEE1       -0.1003
     18  CAS        6.0260    9.0490   10.9230 C.3     1  AEE1       -0.0501
     19  CAX        6.5570    8.0520    9.8910 C.ar    1  AEE1       -0.0432
     20  CAY        7.4900    6.2450    7.9930 C.ar    1  AEE1        0.0156
     21  CAZ        8.4870   -0.5190    4.8080 C.ar    1  AEE1       -0.0045
     22  NAV        7.1900    1.4190    5.5630 N.pl3   1  AEE1       -0.3159
     23  NAW        8.8220    5.6290    6.0760 N.ar    1  AEE1       -0.3384
     24  CBA        7.9120    5.3600    7.0100 C.ar    1  AEE1        0.0578
     25  CBE        7.0950    0.1160    4.8880 C.3     1  AEE1        0.0930
     26  NBF        3.0300    8.6650   12.5170 N.4     1  AEE1        0.3841
     27  NBG        4.7640    9.6350   10.4530 N.4     1  AEE1        0.3868
     28  N1         8.7790    2.1770    4.0480 N.ar    1  AEE1       -0.2091
     29  C2         9.5980    3.1170    3.6150 C.ar    1  AEE1        0.2014
     30  N3         9.6900    4.2890    4.2150 N.ar    1  AEE1       -0.2067
     31  C4         8.9470    4.5610    5.2940 C.ar    1  AEE1        0.1450
     32  C5         8.0710    3.6000    5.7790 C.ar    1  AEE1        0.0668
     33  C6         8.0040    2.3760    5.1250 C.ar    1  AEE1        0.1333
     34  HAA        2.8920    8.1530   13.3710 H       1  AEE1       -0.0799
     35  HAB        4.9320   10.1550    9.6180 H       1  AEE1       -0.0794
     36  HAC        6.6160    1.5520    6.3680 H       1  AEE1        0.1484
     37  HAD        9.3280    6.4870    5.9830 H       1  AEE1        0.1674
@<TRIPOS>BOND
     1     5     7   ar
     2     5     3   ar
     3     7    21   ar
     4    29    28   ar
     5    29    30   ar
     6    28    33   ar
     7    30    31   ar
     8     3     4   ar
     9    21    25    1
    10    21     6   ar
    11    25    22    1
    12    25     2    1
    13    33    22    1
    14    33    32   ar
    15    31    32   ar
    16    31    23   ar
    17    22    36    1
    18    32    12   ar
    19     4     6   ar
    20    37    23    1
    21    23    24   ar
    22    12    24   ar
    23    24    20    1
    24    20    10   ar
    25    20    11   ar
    26    10     8   ar
    27    11     9   ar
    28     8    19   ar
    29    35    27    1
    30     9    19   ar
    31    19    18    1
    32    17    27    1
    33    17    15    1
    34    27    18    1
    35    27    16    1
    36    15    26    1
    37    16    14    1
    38    13    26    1
    39    13     1    1
    40    26    14    1
    41    26    34    1
