@<TRIPOS>MOLECULE
2itz_w_Lig.pdb
 33 36 0 0 0
SMALL
GASTEIGER

@<TRIPOS>ATOM
      1  CAA        8.4010    7.0240    8.2770 C.3     1  IRE1        0.2526
      2  CAD        6.3530   -2.8660    4.6560 C.ar    1  IRE1        0.0306
      3  CAE        6.2880   -1.6950    5.4000 C.ar    1  IRE1        0.0169
      4  CAG        7.8610   -0.6550    3.9080 C.ar    1  IRE1        0.0126
      5  CAH        8.1370    5.0830    6.5090 C.ar    1  IRE1        0.0593
      6  CAI        6.6720    2.8350    7.2620 C.ar    1  IRE1        0.0443
      7  CAJ        3.5860    3.4370    9.9800 C.3     1  IRE1        0.0246
      8  CAK        4.6580    3.1440    8.9320 C.3     1  IRE1        0.2034
      9  CAL        2.6110    4.2660   14.7010 C.3     1  IRE1        0.1194
     10  CAM        1.1890    2.7820   13.5550 C.3     1  IRE1        0.1194
     11  CAN        4.1770    3.4520   11.3920 C.3     1  IRE1       -0.0733
     12  CAO        3.7190    4.0290   13.6730 C.3     1  IRE1       -0.0446
     13  CAP        2.2690    2.5220   12.5010 C.3     1  IRE1       -0.0446
     14  CAW        7.1750   -2.9310    3.5370 C.ar    1  IRE1        0.1362
     15  CAX        7.9310   -1.8270    3.1640 C.ar    1  IRE1        0.0068
     16  CAY        7.0360   -0.5840    5.0260 C.ar    1  IRE1        0.0492
     17  CAZ        7.2900    5.1380    7.6140 C.ar    1  IRE1        0.1739
     18  NAS        6.9430    0.5410    5.7310 N.pl3   1  IRE1       -0.2979
     19  OAT        7.1720    6.2910    8.3280 O.3     1  IRE1       -0.4683
     20  OAU        1.8070    3.0820   14.8180 O.3     1  IRE1       -0.3582
     21  OAV        5.7310    4.0830    9.0680 O.3     1  IRE1       -0.4725
     22  CBA        6.5560    4.0180    7.9870 C.ar    1  IRE1        0.1724
     23  NBE        3.1150    3.7150   12.3730 N.4     1  IRE1        0.3904
     24  CL         8.9630   -1.9100    1.7770 C.3     1  IRE1        0.0334
     25  N1         8.4680    1.6240    4.3530 N.ar    1  IRE1       -0.2089
     26  C2         9.1530    2.7070    4.0240 C.ar    1  IRE1        0.2000
     27  N3         9.0540    3.8270    4.7160 N.ar    1  IRE1       -0.2238
     28  C4         8.2500    3.8980    5.7870 C.ar    1  IRE1        0.0890
     29  C5         7.5160    2.7810    6.1620 C.ar    1  IRE1        0.0526
     30  C6         7.6430    1.6230    5.4080 C.ar    1  IRE1        0.1354
     31  FAB        7.2320   -4.0640    2.8070 F       1  IRE1       -0.2045
     32  HAA        2.5690    4.4960   12.0620 H       1  IRE1       -0.0795
     33  HAB        6.3330    0.5700    6.5210 H       1  IRE1        0.1536
@<TRIPOS>BOND
     1    24    15    1
     2    31    14    1
     3    15    14   ar
     4    15     4   ar
     5    14     2   ar
     6     4    16   ar
     7    26    25   ar
     8    26    27   ar
     9    25    30   ar
    10     2     3   ar
    11    27    28   ar
    12    16     3   ar
    13    16    18    1
    14    30    18    1
    15    30    29   ar
    16    18    33    1
    17    28    29   ar
    18    28     5   ar
    19    29     6   ar
    20     5    17   ar
    21     6    22   ar
    22    17    22   ar
    23    17    19    1
    24    22    21    1
    25     1    19    1
    26     8    21    1
    27     8     7    1
    28     7    11    1
    29    11    23    1
    30    32    23    1
    31    23    13    1
    32    23    12    1
    33    13    10    1
    34    10    20    1
    35    12     9    1
    36     9    20    1
