@<TRIPOS>MOLECULE
2j6m_w_Lig.pdb
 37 41 0 0 0
SMALL
GASTEIGER

@<TRIPOS>ATOM
      1  CAA        4.8820   13.6290   12.0650 C.3     1  AEE1       -0.0250
      2  CAB        6.5810   -0.1740    6.1470 C.3     1  AEE1        0.0261
      3  CAC       10.9300   -1.3290    3.9200 C.ar    1  AEE1       -0.0000
      4  CAD       10.9700   -0.3870    4.9420 C.ar    1  AEE1       -0.0003
      5  CAE        9.7320   -1.6070    3.2770 C.ar    1  AEE1       -0.0003
      6  CAG        9.8070    0.2650    5.3290 C.ar    1  AEE1       -0.0027
      7  CAH        8.5690   -0.9520    3.6640 C.ar    1  AEE1       -0.0027
      8  CAI        9.3100    8.9470    8.8840 C.ar    1  AEE1       -0.0063
      9  CAJ        8.0000    7.3600   10.1340 C.ar    1  AEE1       -0.0063
     10  CAK        9.4140    8.0370    7.8410 C.ar    1  AEE1        0.0010
     11  CAL        8.1060    6.4510    9.0880 C.ar    1  AEE1        0.0010
     12  CAM        8.3630    4.6770    6.8500 C.ar    1  AEE1        0.0228
     13  CAN        5.2320   12.6660   10.9270 C.3     1  AEE1       -0.0776
     14  CAO        6.6380   11.4060   12.4210 C.3     1  AEE1       -0.1008
     15  CAP        5.8440   10.4070   10.3830 C.3     1  AEE1       -0.1008
     16  CAQ        7.8950   11.8920   11.6960 C.3     1  AEE1       -0.1003
     17  CAR        7.0950   10.8930    9.6550 C.3     1  AEE1       -0.1003
     18  CAS        8.4570    9.6220   11.1680 C.3     1  AEE1       -0.0501
     19  CAX        8.6000    8.6100   10.0300 C.ar    1  AEE1       -0.0432
     20  CAY        8.8150    6.7900    7.9430 C.ar    1  AEE1        0.0156
     21  CAZ        8.6040   -0.0200    4.6940 C.ar    1  AEE1       -0.0045
     22  NAV        7.6540    1.9910    5.7310 N.pl3   1  AEE1       -0.3159
     23  NAW        9.5240    6.1310    5.7320 N.ar    1  AEE1       -0.3384
     24  CBA        8.8960    5.8960    6.8810 C.ar    1  AEE1        0.0578
     25  CBE        7.3220    0.6930    5.1290 C.3     1  AEE1        0.0930
     26  NBF        5.5170   11.3320   11.4750 N.4     1  AEE1        0.3841
     27  NBG        8.2170   10.9610   10.6060 N.4     1  AEE1        0.3868
     28  N1         8.7990    2.6800    3.8350 N.ar    1  AEE1       -0.2091
     29  C2         9.5030    3.5860    3.1820 C.ar    1  AEE1        0.2014
     30  N3         9.7980    4.7570    3.7190 N.ar    1  AEE1       -0.2067
     31  C4         9.3880    5.0560    4.9550 C.ar    1  AEE1        0.1450
     32  C5         8.6450    4.1300    5.6730 C.ar    1  AEE1        0.0668
     33  C6         8.3520    2.9130    5.0760 C.ar    1  AEE1        0.1333
     34  HAA        4.7090   11.0100   11.9650 H       1  AEE1       -0.0799
     35  HAB        9.0480   11.2730   10.1380 H       1  AEE1       -0.0794
     36  HAC        7.3300    2.1460    6.6620 H       1  AEE1        0.1484
     37  HAD       10.0090    6.9690    5.4910 H       1  AEE1        0.1674
@<TRIPOS>BOND
     1    29    30   ar
     2    29    28   ar
     3     5     7   ar
     4     5     3   ar
     5     7    21   ar
     6    30    31   ar
     7    28    33   ar
     8     3     4   ar
     9    21    25    1
    10    21     6   ar
    11     4     6   ar
    12    31    32   ar
    13    31    23   ar
    14    33    32   ar
    15    33    22    1
    16    25    22    1
    17    25     2    1
    18    37    23    1
    19    32    12   ar
    20    22    36    1
    21    23    24   ar
    22    12    24   ar
    23    24    20    1
    24    10    20   ar
    25    10     8   ar
    26    20    11   ar
    27     8    19   ar
    28    11     9   ar
    29    17    15    1
    30    17    27    1
    31    19     9   ar
    32    19    18    1
    33    35    27    1
    34    15    26    1
    35    27    18    1
    36    27    16    1
    37    13    26    1
    38    13     1    1
    39    26    34    1
    40    26    14    1
    41    16    14    1
