@<TRIPOS>MOLECULE
2qoh_w_Lig.pdb
 29 32 0 0 0
SMALL
GASTEIGER

@<TRIPOS>ATOM
      1  C1         4.9020    3.1260    5.2960 C.3     1  P3Y1        0.2525
      2  N1         9.2700    7.0690    4.1420 N.ar    1  P3Y1       -0.2270
      3  O1         6.2860    3.4780    5.2140 O.3     1  P3Y1       -0.4714
      4  C2         8.6480    7.4690    5.2360 C.ar    1  P3Y1        0.1005
      5  C3         7.9250    6.5730    6.0170 C.ar    1  P3Y1        0.0208
      6  C4         7.8620    5.2350    5.6450 C.ar    1  P3Y1        0.0046
      7  C5         8.5270    4.8490    4.4870 C.ar    1  P3Y1        0.0355
      8  C6         9.2350    5.7890    3.7470 C.ar    1  P3Y1        0.1406
      9  C9         8.7150    3.6350    3.8400 C.ar    1  P3Y1        0.0228
     10  C10        9.4850    3.8570    2.7770 C.ar    1  P3Y1        0.0736
     11  N11        9.7970    5.1500    2.7210 N.ar    1  P3Y1       -0.3374
     12  C14        8.2270    2.4230    4.3120 C.ar    1  P3Y1        0.0355
     13  C15        7.0350    2.3580    5.0270 C.ar    1  P3Y1        0.1387
     14  C16        6.5930    1.1390    5.5330 C.ar    1  P3Y1        0.0369
     15  C17        7.3410   -0.0150    5.3280 C.ar    1  P3Y1        0.0031
     16  C18        8.5290    0.0520    4.6150 C.ar    1  P3Y1        0.0002
     17  C19        8.9700    1.2660    4.1050 C.ar    1  P3Y1        0.0031
     18  C24        7.2620    7.0110    7.1590 C.ar    1  P3Y1        0.0208
     19  C25        6.2490    6.2380    7.7160 C.ar    1  P3Y1        0.0989
     20  N26        5.6440    6.6150    8.8280 N.ar    1  P3Y1       -0.2422
     21  C27        5.9760    7.7350    9.4470 C.ar    1  P3Y1        0.1034
     22  C28        6.9840    8.5560    8.9560 C.ar    1  P3Y1        0.0727
     23  C29        7.6390    8.1900    7.7860 C.ar    1  P3Y1        0.0077
     24  C33        7.3530    9.8390    9.7050 C.2     1  P3Y1        0.2506
     25  O34        7.1870    9.9100   10.9240 O.2     1  P3Y1       -0.2699
     26  N35        7.8650   10.8300    8.9800 N.am    1  P3Y1       -0.2725
     27  C41        8.0470   10.6650    7.5300 C.3     1  P3Y1        0.1152
     28  C45        8.2440   12.0750    9.6630 C.3     1  P3Y1        0.1152
     29  HAA       10.3670    5.5780    2.0220 H       1  P3Y1        0.1674
@<TRIPOS>BOND
     1    29    11    1
     2    11    10   ar
     3    11     8   ar
     4    10     9   ar
     5     8     2   ar
     6     8     7   ar
     7     9    12    1
     8     9     7   ar
     9    17    12   ar
    10    17    16   ar
    11     2     4   ar
    12    12    13   ar
    13     7     6   ar
    14    16    15   ar
    15    13     3    1
    16    13    14   ar
    17     3     1    1
    18     4     5   ar
    19    15    14   ar
    20     6     5   ar
    21     5    18    1
    22    18    19   ar
    23    18    23   ar
    24    27    26    1
    25    19    20   ar
    26    23    22   ar
    27    20    21   ar
    28    22    21   ar
    29    22    24    1
    30    26    28    1
    31    26    24   am
    32    24    25    2
