@<TRIPOS>MOLECULE
3f3v_w_Lig.pdb
 43 47 0 0 0
SMALL
GASTEIGER

@<TRIPOS>ATOM
      1  CAA      -10.7810    7.9530   -0.0640 C.3     1  1BU1        0.0311
      2  CAB       -6.0710    2.9160   -6.0620 C.3     1  1BU1        0.0060
      3  CAC       -4.5920    4.8600   -5.4880 C.3     1  1BU1        0.0060
      4  CAD       -4.4480    2.7380   -4.1580 C.3     1  1BU1        0.0060
      5  CAG       -8.5800    9.0470   -2.9700 C.ar    1  1BU1        0.0012
      6  CAI       -9.4840    9.0790   -1.9170 C.ar    1  1BU1       -0.0042
      7  CAJ       -7.9920    7.8450   -3.3420 C.ar    1  1BU1        0.0192
      8  CAK       -9.0230    0.3040   -0.0560 C.ar    1  1BU1        0.0160
      9  CAL      -10.8130    1.0540    1.3600 C.ar    1  1BU1        0.0160
     10  CAM       -9.1190   -0.9690    0.4990 C.ar    1  1BU1        0.0159
     11  CAN      -10.9080   -0.2170    1.9150 C.ar    1  1BU1        0.0159
     12  CAO      -10.9550   -6.5400    4.7160 C.ar    1  1BU1        0.0156
     13  CAP      -11.8520   -5.5720    5.1580 C.ar    1  1BU1        0.0205
     14  CAQ       -9.2070    6.7060   -1.6070 C.ar    1  1BU1        0.0149
     15  CAR       -7.0820    3.4730   -3.0600 C.ar    1  1BU1        0.0509
     16  CAS      -10.0560   -4.9920    3.1080 C.ar    1  1BU1        0.0184
     17  CAZ       -8.8460    2.7960   -1.0660 C.2     1  1BU1        0.3092
     18  NAE       -9.2050   -7.1830    3.2770 N.pl3   1  1BU1       -0.3570
     19  NAV       -6.8600    5.4680   -3.9140 N.ar    1  1BU1       -0.1683
     20  NAW       -9.7570    2.5420   -0.1300 N.am    1  1BU1       -0.2680
     21  NAX       -8.7830    4.0430   -1.5250 N.am    1  1BU1       -0.2533
     22  NAY      -10.1050   -2.4450    2.0280 N.pl3   1  1BU1       -0.2979
     23  OAF       -8.0670    1.9280   -1.4620 O.2     1  1BU1       -0.2521
     24  CBA       -9.7990    7.9090   -1.2360 C.ar    1  1BU1       -0.0204
     25  CBB      -10.0600   -6.2530    3.6920 C.ar    1  1BU1        0.0417
     26  CBC       -9.8670    1.3200    0.3760 C.ar    1  1BU1        0.0517
     27  CBD      -10.0580   -1.2320    1.4880 C.ar    1  1BU1        0.0494
     28  CBE       -8.3010    6.6740   -2.6610 C.ar    1  1BU1        0.0839
     29  CBF       -6.4430    4.2050   -3.9660 C.ar    1  1BU1        0.0810
     30  CBG       -7.8930    4.3450   -2.4700 C.ar    1  1BU1        0.1380
     31  CBL       -5.3780    3.6740   -4.9280 C.3     1  1BU1        0.0372
     32  NBK       -7.7090    5.5390   -3.0260 N.ar    1  1BU1       -0.2162
     33  N1       -11.8380   -1.8510    3.4600 N.ar    1  1BU1       -0.2089
     34  C2       -12.6780   -2.1600    4.4310 C.ar    1  1BU1        0.2000
     35  N3       -12.6920   -3.3600    4.9830 N.ar    1  1BU1       -0.2239
     36  C4       -11.8420   -4.3130    4.5730 C.ar    1  1BU1        0.0858
     37  C5       -10.9480   -4.0220    3.5500 C.ar    1  1BU1        0.0506
     38  C6       -10.9670   -2.7530    2.9930 C.ar    1  1BU1        0.1353
     39  HAA      -10.3740    3.2600    0.1970 H       1  1BU1        0.1564
     40  HAB       -9.3930    4.7580   -1.1820 H       1  1BU1        0.1578
     41  HAC       -9.4730   -3.1470    1.7010 H       1  1BU1        0.1536
     42  HAD       -9.2100   -8.0910    3.6950 H       1  1BU1        0.1424
     43  HAE       -8.5530   -6.9740    2.5500 H       1  1BU1        0.1424
@<TRIPOS>BOND
     1     2    31    1
     2     3    31    1
     3    31     4    1
     4    31    29    1
     5    29    19   ar
     6    29    15   ar
     7    19    32   ar
     8     7     5   ar
     9     7    28   ar
    10    15    30   ar
    11    32    28    1
    12    32    30   ar
    13     5     6   ar
    14    28    14   ar
    15    30    21    1
    16     6    24   ar
    17    14    24   ar
    18    21    40    1
    19    21    17   am
    20    23    17    2
    21    24     1    1
    22    17    20   am
    23    20    39    1
    24    20    26    1
    25     8    26   ar
    26     8    10   ar
    27    26     9   ar
    28    10    27   ar
    29     9    11   ar
    30    27    11   ar
    31    27    22    1
    32    41    22    1
    33    22    38    1
    34    43    18    1
    35    38    33   ar
    36    38    37   ar
    37    16    37   ar
    38    16    25   ar
    39    18    25    1
    40    18    42    1
    41    33    34   ar
    42    37    36   ar
    43    25    12   ar
    44    34    35   ar
    45    36    35   ar
    46    36    13   ar
    47    12    13   ar
