@<TRIPOS>MOLECULE
3g0e_w_Lig.pdb
 26 28 0 0 0
SMALL
GASTEIGER

@<TRIPOS>ATOM
      1  C3        -5.0990    7.9040   -8.4600 C.3     1  B491        0.0327
      2  C4        -4.8780   12.7960   -6.9180 C.3     1  B491        0.0499
      3  C5        -8.1960    5.0900   -2.0220 C.ar    1  B491        0.0309
      4  C6        -8.0720    6.4220   -1.6350 C.ar    1  B491        0.0170
      5  C7        -7.2090    5.6110   -4.1550 C.ar    1  B491        0.0310
      6  C12       -6.1150    8.1170   -5.6970 C.2     1  B491        0.0212
      7  C13       -5.1950    9.1840   -7.6330 C.ar    1  B491       -0.0008
      8  C14       -5.1020   11.2820   -6.9520 C.ar    1  B491        0.0380
      9  C15       -7.7640    4.6840   -3.2810 C.ar    1  B491        0.1402
     10  C16       -7.5240    7.3530   -2.5100 C.ar    1  B491        0.0508
     11  C17       -7.0990    6.9400   -3.7680 C.ar    1  B491        0.0201
     12  C18       -5.6800    9.2780   -6.3340 C.ar    1  B491        0.0527
     13  C19       -4.8300   10.4580   -8.0360 C.ar    1  B491        0.0620
     14  C20       -6.6030    8.0730   -4.3980 C.2     1  B491        0.0563
     15  C21       -6.7610    9.1250   -3.5030 C.2     1  B491        0.2496
     16  C22       -4.2390   10.8850   -9.3800 C.2     1  B491        0.2436
     17  N23       -5.6000   10.5540   -5.9540 N.ar    1  B491       -0.3565
     18  N24       -7.3120    8.6630   -2.3840 N.am    1  B491       -0.2804
     19  N25       -4.0900    9.9110  -10.2710 N.am    1  B491       -0.3253
     20  O27       -6.4250   10.2890   -3.6960 O.2     1  B491       -0.2698
     21  O28       -3.9340   12.0570   -9.5910 O.2     1  B491       -0.2703
     22  F29       -7.8850    3.3960   -3.6540 F       1  B491       -0.2042
     23  HAA       -5.8800   10.9190   -5.0680 H       1  B491        0.1656
     24  HAB       -7.5310    9.2080   -1.5750 H       1  B491        0.1552
     25  HAC       -3.7070   10.1190  -11.1740 H       1  B491        0.1453
     26  HAD       -4.3530    8.9750  -10.0490 H       1  B491        0.1453
@<TRIPOS>BOND
     1    25    19    1
     2    19    26    1
     3    19    16   am
     4    21    16    2
     5    16    13    1
     6     1     7    1
     7    13     7   ar
     8    13     8   ar
     9     7    12   ar
    10     8     2    1
    11     8    17   ar
    12    12    17   ar
    13    12     6    1
    14    17    23    1
    15     6    14    2
    16    14    11    1
    17    14    15    1
    18     5    11   ar
    19     5     9   ar
    20    11    10   ar
    21    20    15    2
    22    22     9    1
    23    15    18   am
    24     9     3   ar
    25    10    18    1
    26    10     4   ar
    27    18    24    1
    28     3     4   ar
