@<TRIPOS>MOLECULE
3g0f_w_Lig.pdb
 26 28 0 0 0
SMALL
GASTEIGER

@<TRIPOS>ATOM
      1  C3        -6.4090   -6.3290    9.7180 C.3     1  B491        0.0327
      2  C4        -7.9440  -10.9920    8.2070 C.3     1  B491        0.0499
      3  C5        -9.2620   -2.5280    3.6800 C.ar    1  B491        0.0309
      4  C6        -9.5860   -3.8210    3.2970 C.ar    1  B491        0.0170
      5  C7        -8.1690   -3.3770    5.6400 C.ar    1  B491        0.0310
      6  C12       -7.6860   -6.1410    7.0560 C.2     1  B491        0.0212
      7  C13       -6.9980   -7.4880    8.9100 C.ar    1  B491       -0.0008
      8  C14       -7.6650   -9.4860    8.2500 C.ar    1  B491        0.0380
      9  C15       -8.5520   -2.3020    4.8510 C.ar    1  B491        0.1402
     10  C16       -9.2040   -4.9030    4.0780 C.ar    1  B491        0.0508
     11  C17       -8.4940   -4.6700    5.2510 C.ar    1  B491        0.0201
     12  C18       -7.5940   -7.3920    7.6570 C.ar    1  B491        0.0527
     13  C19       -7.0440   -8.8200    9.2960 C.ar    1  B491        0.0620
     14  C20       -8.2700   -5.9190    5.8160 C.2     1  B491        0.0563
     15  C21       -8.8450   -6.8460    4.9610 C.2     1  B491        0.2496
     16  C22       -6.5050   -9.4390   10.5870 C.2     1  B491        0.2436
     17  N23       -7.9840   -8.6130    7.2920 N.ar    1  B491       -0.3565
     18  N24       -9.3980   -6.2090    3.9340 N.am    1  B491       -0.2804
     19  N25       -5.8190   -8.6130   11.3690 N.am    1  B491       -0.3253
     20  O27       -8.8240   -8.0650    5.1050 O.2     1  B491       -0.2698
     21  O28       -6.7270  -10.6180   10.8570 O.2     1  B491       -0.2703
     22  F29       -8.2320   -1.0470    5.2180 F       1  B491       -0.2042
     23  HAA       -8.4520   -8.8510    6.4390 H       1  B491        0.1656
     24  HAB       -9.8770   -6.6450    3.1760 H       1  B491        0.1552
     25  HAC       -5.6840   -7.6580   11.1000 H       1  B491        0.1453
     26  HAD       -5.4290   -8.9460   12.2280 H       1  B491        0.1453
@<TRIPOS>BOND
     1    24    18    1
     2     4     3   ar
     3     4    10   ar
     4     3     9   ar
     5    18    10    1
     6    18    15   am
     7    10    11   ar
     8     9    22    1
     9     9     5   ar
    10    15    20    2
    11    15    14    1
    12    11     5   ar
    13    11    14    1
    14    14     6    2
    15    23    17    1
    16     6    12    1
    17    17    12   ar
    18    17     8   ar
    19    12     7   ar
    20     2     8    1
    21     8    13   ar
    22     7    13   ar
    23     7     1    1
    24    13    16    1
    25    16    21    2
    26    16    19   am
    27    25    19    1
    28    19    26    1
