@<TRIPOS>MOLECULE
3qrj_w_Lig.pdb
 44 48 0 0 0
SMALL
GASTEIGER

@<TRIPOS>ATOM
      1  C1        -6.8620    6.5050   -3.4350 C.ar    1  9191        0.0843
      2  C2        -6.3390    7.4620   -4.2980 C.ar    1  9191        0.0207
      3  C3        -6.5620    8.8160   -4.0550 C.ar    1  9191        0.0206
      4  C4        -7.3070    9.2100   -2.9500 C.ar    1  9191        0.0814
      5  C5        -7.8290    8.2510   -2.0910 C.ar    1  9191        0.0192
      6  C6        -7.6060    6.9000   -2.3310 C.ar    1  9191        0.0207
      7  C9        -8.2140   10.9270   -1.6760 C.ar    1  9191        0.0988
      8  N10       -7.5160   10.5140   -2.7180 N.ar    1  9191       -0.2438
      9  C13       -8.5660    8.6560   -0.9840 C.ar    1  9191        0.0031
     10  C14       -8.7600   10.0160   -0.7770 C.ar    1  9191        0.0207
     11  C22      -10.7410   -3.4890    1.8290 C.ar    1  9191        0.1021
     12  N23      -10.4400   -4.2210    2.8910 N.ar    1  9191       -0.2391
     13  C24      -10.2620   -3.6590    4.0950 C.ar    1  9191        0.1375
     14  C25      -10.4030   -2.2880    4.2570 C.ar    1  9191        0.0612
     15  C26      -10.7300   -1.4990    3.1640 C.ar    1  9191        0.1485
     16  C27      -10.8890   -2.1090    1.9270 C.ar    1  9191        0.0582
     17  C34       -9.1670    1.2350    0.4880 C.ar    1  9191        0.0201
     18  C35       -9.5700    0.3230    1.4570 C.ar    1  9191        0.0389
     19  C36      -10.6180    0.6370    2.3160 C.ar    1  9191        0.1476
     20  C37      -11.2720    1.8570    2.1920 C.ar    1  9191        0.0684
     21  C38      -10.8620    2.7690    1.2300 C.ar    1  9191        0.1565
     22  C39       -9.8060    2.4660    0.3810 C.ar    1  9191        0.0795
     23  C46       -5.6760    3.4950   -4.3110 C.ar    1  9191        0.0810
     24  C47       -6.4510    3.0890   -3.3080 C.ar    1  9191        0.0509
     25  C48       -7.0340    4.2100   -2.8950 C.ar    1  9191        0.1380
     26  N49       -6.5840    5.2180   -3.6390 N.ar    1  9191       -0.2162
     27  N50       -5.7950    4.8100   -4.4880 N.ar    1  9191       -0.1683
     28  N56       -8.0060    4.2870   -1.9920 N.am    1  9191       -0.2533
     29  C58       -8.3600    3.2260   -1.2760 C.2     1  9191        0.3093
     30  N60       -9.3580    3.4270   -0.4220 N.am    1  9191       -0.2662
     31  O63       -7.7890    2.1440   -1.3820 O.2     1  9191       -0.2521
     32  O65      -10.9630   -0.1740    3.3530 O.3     1  9191       -0.4533
     33  C70       -9.9660   -4.5210    5.3230 C.2     1  9191        0.2637
     34  O72       -9.5570   -4.0120    6.3660 O.2     1  9191       -0.2685
     35  N74      -10.1580   -5.8280    5.1660 N.am    1  9191       -0.2979
     36  C76       -9.8850   -6.6830    6.3340 C.3     1  9191        0.1110
     37  C79       -4.7860    2.5840   -5.1610 C.3     1  9191        0.0372
     38  C81       -5.6700    1.5450   -5.8520 C.3     1  9191        0.0060
     39  C83       -3.7730    1.8950   -4.2470 C.3     1  9191        0.0060
     40  C85       -4.0660    3.4430   -6.2000 C.3     1  9191        0.0060
     41  F68      -11.5030    3.9470    1.1130 F       1  9191       -0.2028
     42  HAA       -8.4760    5.1620   -1.8710 H       1  9191        0.1578
     43  HAB       -9.7980    4.3220   -0.3680 H       1  9191        0.1565
     44  HAC      -10.4680   -6.2380    4.3050 H       1  9191        0.1498
@<TRIPOS>BOND
     1    40    37    1
     2    38    37    1
     3    37    23    1
     4    37    39    1
     5    27    23   ar
     6    27    26   ar
     7    23    24   ar
     8     2     3   ar
     9     2     1   ar
    10     3     4   ar
    11    26     1    1
    12    26    25   ar
    13     1     6   ar
    14    24    25   ar
    15     4     8   ar
    16     4     5   ar
    17    25    28    1
    18     8     7   ar
    19     6     5   ar
    20     5     9   ar
    21    28    42    1
    22    28    29   am
    23     7    10   ar
    24    31    29    2
    25    29    30   am
    26     9    10   ar
    27    30    43    1
    28    30    22    1
    29    22    17   ar
    30    22    21   ar
    31    17    18   ar
    32    41    21    1
    33    21    20   ar
    34    18    19   ar
    35    11    16   ar
    36    11    12   ar
    37    16    15   ar
    38    20    19   ar
    39    19    32    1
    40    12    13   ar
    41    15    32    1
    42    15    14   ar
    43    13    14   ar
    44    13    33    1
    45    44    35    1
    46    35    33   am
    47    35    36    1
    48    33    34    2
