@<TRIPOS>MOLECULE
3w2s_w_Lig.pdb
 44 48 0 0 0
SMALL
GASTEIGER

@<TRIPOS>ATOM
      1  CL1       10.8620    0.9810   -0.7560 C.3     1  W2R1        0.0343
      2  C1         8.4760    3.8460    1.2570 C.ar    1  W2R1        0.0044
      3  C2         7.6560    4.9480    1.0270 C.ar    1  W2R1        0.0149
      4  C3         8.2790    1.5920   -4.3970 C.ar    1  W2R1        0.0178
      5  C4         9.3240    3.3920    0.2540 C.ar    1  W2R1        0.0376
      6  C5         8.8160    2.6900   -3.7320 C.ar    1  W2R1        0.0384
      7  C6         7.2490   -5.1870   -5.1560 C.ar    1  W2R1        0.0394
      8  C7         8.5150    5.1220   -1.2140 C.ar    1  W2R1        0.0522
      9  C8         9.3020    0.1220   -2.7900 C.ar    1  W2R1        0.0134
     10  C9         6.6960   -4.4910   -6.1500 C.ar    1  W2R1        0.0777
     11  C10        9.0660   -3.4530   -2.5710 C.ar    1  W2R1        0.2001
     12  C11        7.8460   -4.3380   -4.3210 C.ar    1  W2R1        0.1030
     13  C12        7.6490   -3.0570   -4.8190 C.ar    1  W2R1        0.1101
     14  C13        7.6770    5.5870   -0.2080 C.ar    1  W2R1        0.0546
     15  C14        8.5200    0.3060   -3.9250 C.ar    1  W2R1        0.0493
     16  C15        9.3440    4.0290   -0.9820 C.ar    1  W2R1        0.1465
     17  C16        9.6020    2.5030   -2.5990 C.ar    1  W2R1        0.1413
     18  C17        9.8470    1.2180   -2.1340 C.ar    1  W2R1        0.0139
     19  C18        8.1960   -1.9800   -4.1320 C.ar    1  W2R1        0.1513
     20  C19        6.9160    7.3020   -1.5590 C.2     1  W2R1        0.3044
     21  C20        6.5880   11.7070   -4.2940 C.3     1  W2R1        0.0001
     22  C21        7.3730   10.4270   -4.5950 C.3     1  W2R1        0.0017
     23  C22        5.1820   11.3590   -3.8000 C.3     1  W2R1        0.0017
     24  C23        7.4370    9.5370   -3.3540 C.3     1  W2R1        0.0196
     25  C24        5.2590   10.4620   -2.5640 C.3     1  W2R1        0.0196
     26  C25        6.0320    9.1790   -2.8660 C.3     1  W2R1        0.0730
     27  C26        6.5800   -2.1110   -6.8560 C.3     1  W2R1        0.1382
     28  C27        5.2430   -1.5010   -6.4340 C.3     1  W2R1        0.1667
     29  C28        4.2980    0.3250   -3.3580 C.3     1  W2R1        0.1692
     30  C29        4.1700   -0.2450   -4.7730 C.3     1  W2R1        0.1739
     31  N30        8.5600   -4.4990   -3.1970 N.ar    1  W2R1       -0.2224
     32  N31        8.8970   -2.2210   -3.0160 N.ar    1  W2R1       -0.2074
     33  N32        6.9470   -3.1990   -5.9380 N.ar    1  W2R1       -0.3200
     34  N33        8.0000   -0.7390   -4.5700 N.pl3   1  W2R1       -0.2967
     35  N34        6.9180    6.6630   -0.3920 N.am    1  W2R1       -0.2682
     36  N35        6.1280    8.3690   -1.6460 N.am    1  W2R1       -0.2903
     37  O36        7.6060    6.9340   -2.5090 O.2     1  W2R1       -0.2525
     38  O37        5.4230    1.2010   -3.2980 O.3     1  W2R1       -0.3794
     39  O38       10.1650    3.5670   -1.9650 O.3     1  W2R1       -0.4538
     40  O39        5.3710   -0.9440   -5.1140 O.3     1  W2R1       -0.3490
     41  HAA        5.2730    1.9810   -3.9060 H       1  W2R1        0.2105
     42  HAB        7.4570   -0.5860   -5.3980 H       1  W2R1        0.1537
     43  HAC        6.3460    6.9770    0.3670 H       1  W2R1        0.1564
     44  HAD        5.5600    8.6860   -0.8850 H       1  W2R1        0.1509
@<TRIPOS>BOND
     1    27    28    1
     2    27    33    1
     3    28    40    1
     4    10    33   ar
     5    10     7   ar
     6    33    13   ar
     7    42    34    1
     8     7    12   ar
     9    40    30    1
    10    13    12   ar
    11    13    19   ar
    12    30    29    1
    13    22    21    1
    14    22    24    1
    15    34    19    1
    16    34    15    1
    17     4    15   ar
    18     4     6   ar
    19    12    31   ar
    20    21    23    1
    21    19    32   ar
    22    15     9   ar
    23    41    38    1
    24    23    25    1
    25     6    17   ar
    26    29    38    1
    27    24    26    1
    28    31    11   ar
    29    32    11   ar
    30    26    25    1
    31    26    36    1
    32     9    18   ar
    33    17    18   ar
    34    17    39    1
    35    37    20    2
    36    18     1    1
    37    39    16    1
    38    36    20   am
    39    36    44    1
    40    20    35   am
    41     8    16   ar
    42     8    14   ar
    43    16     5   ar
    44    35    14    1
    45    35    43    1
    46    14     3   ar
    47     5     2   ar
    48     3     2   ar
