@<TRIPOS>MOLECULE
4cli_w_Lig.pdb
 32 35 0 0 0
SMALL
GASTEIGER

@<TRIPOS>ATOM
      1  C1        -8.2080    7.1630   -1.9850 C.ar    1  5P81        0.1698
      2  C2        -8.7200    7.8410   -0.8830 C.ar    1  5P81        0.1597
      3  N3        -8.5880    9.1730   -0.7870 N.ar    1  5P81       -0.2265
      4  C4        -7.9880    9.8770   -1.7290 C.ar    1  5P81        0.1006
      5  C5        -7.4550    9.2590   -2.8540 C.ar    1  5P81        0.0256
      6  C6        -7.5650    7.8800   -2.9890 C.ar    1  5P81        0.0414
      7  O7        -8.3790    5.8160   -2.0830 O.3     1  5P81       -0.4720
      8  C8        -8.3950    5.3960   -3.4530 C.3     1  5P81        0.1886
      9  C9        -9.3850    4.2450   -3.6270 C.3     1  5P81        0.0523
     10  C10       -6.9910    4.9330   -3.8460 C.ar    1  5P81        0.0238
     11  C11       -6.4300    5.3280   -5.0570 C.ar    1  5P81        0.0531
     12  C12       -5.1490    4.9110   -5.3970 C.ar    1  5P81        0.0066
     13  C13       -4.4250    4.1050   -4.5250 C.ar    1  5P81        0.0298
     14  C14       -4.9870    3.7100   -3.3190 C.ar    1  5P81        0.1399
     15  C15       -6.2700    4.1180   -2.9830 C.ar    1  5P81        0.0290
     16  N17       -9.3240    7.1630    0.0870 N.pl3   1  5P81       -0.3402
     17  C18       -6.8470   10.0300   -3.8390 C.ar    1  5P81        0.0456
     18  C19       -6.7610   11.3980   -4.0670 C.ar    1  5P81        0.1470
     19  N20       -6.0140   11.5630   -5.1510 N.ar    1  5P81       -0.2394
     20  N21       -5.6360   10.4870   -5.6130 N.ar    1  5P81       -0.1713
     21  C22       -6.1010    9.4800   -4.8730 C.ar    1  5P81        0.1008
     22  C23       -7.4050   12.3800   -3.2460 C.1     1  5P81        0.1194
     23  N24       -7.9190   13.1630   -2.5980 N.1     1  5P81       -0.1893
     24  C25       -5.6830   12.8780   -5.7350 C.3     1  5P81        0.1545
     25  N26       -6.9140    7.4800   -6.0300 N.am    1  5P81       -0.2686
     26  C27       -7.2370    6.1910   -6.0260 C.2     1  5P81        0.2492
     27  C28       -5.8620    7.9900   -5.1400 C.3     1  5P81        0.1414
     28  C29       -7.6740    8.3240   -6.9600 C.3     1  5P81        0.1156
     29  O30       -8.1130    5.7000   -6.7350 O.2     1  5P81       -0.2699
     30  F16       -4.2870    2.9230   -2.4770 F       1  5P81       -0.2042
     31  HAA       -9.6910    7.6460    0.8810 H       1  5P81        0.1438
     32  HAB       -9.4130    6.1710    0.0190 H       1  5P81        0.1438
@<TRIPOS>BOND
     1    28    25    1
     2    29    26    2
     3    25    26   am
     4    25    27    1
     5    26    11    1
     6    24    19    1
     7    20    19   ar
     8    20    21   ar
     9    12    11   ar
    10    12    13   ar
    11    19    18   ar
    12    27    21    1
    13    11    10   ar
    14    21    17   ar
    15    13    14   ar
    16    18    17   ar
    17    18    22    1
    18    10     8    1
    19    10    15   ar
    20    17     5    1
    21     9     8    1
    22     8     7    1
    23    14    15   ar
    24    14    30    1
    25    22    23    3
    26     6     5   ar
    27     6     1   ar
    28     5     4   ar
    29     7     1    1
    30     1     2   ar
    31     4     3   ar
    32     2     3   ar
    33     2    16    1
    34    32    16    1
    35    16    31    1
