@<TRIPOS>MOLECULE
4eok_w_Lig.pdb
 33 36 0 0 0
SMALL
GASTEIGER

@<TRIPOS>ATOM
      1  N1        12.7230    3.1190    4.3510 N.2     1  4SP1       -0.3140
      2  C2        13.6730    3.9290    3.8600 C.cat   1  4SP1        0.3917
      3  N2        13.8870    5.1270    4.3970 N.pl3   1  4SP1       -0.2505
      4  N3        14.4120    3.5600    2.8040 N.2     1  4SP1        0.0125
      5  C4        14.2120    2.3760    2.2070 C.2     1  4SP1        0.3854
      6  C5        13.2350    1.5230    2.6990 C.3     1  4SP1        0.2754
      7  C6        12.4880    1.9210    3.7970 C.2     1  4SP1        0.2882
      8  O6        11.5320    1.0970    4.3070 O.2     1  4SP1       -0.4532
      9  N7        13.2440    0.4340    1.9370 N.pl3   1  4SP1       -0.2765
     10  C8        14.1800    0.5880    1.0050 C.2     1  4SP1        0.3020
     11  N9        14.7750    1.7710    1.1670 N.2     1  4SP1       -0.0153
     12  C10       11.4060    1.3120    5.7220 C.3     1  4SP1        0.2078
     13  C11       10.5400    0.2020    6.3190 C.3     1  4SP1        0.0438
     14  C12        9.1550    0.1830    5.6710 C.3     1  4SP1        0.0037
     15  C13        8.2930   -0.9290    6.2670 C.3     1  4SP1        0.0001
     16  C14        8.1540   -0.7450    7.7790 C.3     1  4SP1        0.0000
     17  C15        9.5350   -0.7230    8.4370 C.3     1  4SP1        0.0001
     18  C16       10.3960    0.3900    7.8300 C.3     1  4SP1        0.0037
     19  C17       13.1630    5.5760    5.4230 C.ar    1  4SP1        0.0533
     20  C18       13.4300    6.8340    5.9410 C.ar    1  4SP1        0.0160
     21  C19       12.6480    7.3480    6.9710 C.ar    1  4SP1        0.0176
     22  C20       11.5900    6.6050    7.4790 C.ar    1  4SP1        0.0892
     23  C21       11.3220    5.3420    6.9660 C.ar    1  4SP1        0.0176
     24  C22       12.1070    4.8290    5.9350 C.ar    1  4SP1        0.0160
     25  S23       10.5530    7.3110    8.7050 S.O2    1  4SP1       -0.0237
     26  O24        9.5480    8.1910    8.0280 O.2     1  4SP1       -0.1851
     27  O25       11.3890    8.1640    9.6090 O.2     1  4SP1       -0.1851
     28  N26        9.8130    6.1460    9.5740 N.4     1  4SP1        0.4312
     29  HAA       10.0220    5.3570    8.9920 H       1  4SP1       -0.0539
     30  HAB        8.8170    6.0600    9.5290 H       1  4SP1       -0.0539
     31  HAC       10.3200    5.8460   10.3810 H       1  4SP1       -0.0539
     32  HAD       14.6080    5.7070    4.0230 H       1  4SP1        0.1582
     33  HAE       12.6480   -0.3660    2.0460 H       1  4SP1        0.1513
@<TRIPOS>BOND
     1    10    11    2
     2    10     9    1
     3    11     5    1
     4     9    33    1
     5     9     6    1
     6     5     6    1
     7     5     4    2
     8     6     7    1
     9     4     2    1
    10     7     8    1
    11     7     1    2
    12     2     1    2
    13     2     3    1
    14    32     3    1
    15     8    12    1
    16     3    19    1
    17    19    24   ar
    18    19    20   ar
    19    14    15    1
    20    14    13    1
    21    12    13    1
    22    24    23   ar
    23    20    21   ar
    24    15    16    1
    25    13    18    1
    26    23    22   ar
    27    21    22   ar
    28    22    25    1
    29    16    17    1
    30    18    17    1
    31    26    25    2
    32    25    28    1
    33    25    27    2
    34    29    28    1
    35    30    28    1
    36    28    31    1
