@<TRIPOS>MOLECULE
4mxo_w_Lig.pdb
 40 43 0 0 0
SMALL
GASTEIGER

@<TRIPOS>ATOM
      1  CAA        9.5510    5.0660    7.6600 C.3     1  DB81        0.2521
      2  CAC        9.2910   11.1750    8.3030 C.3     1  DB81       -0.0737
      3  CAG       10.9380    3.6890    1.1390 C.1     1  DB81        0.0990
      4  CAH       11.0920    6.2510    1.6120 C.3     1  DB81        0.1257
      5  CAI        9.6790    0.5490    5.2790 C.3     1  DB81        0.0476
      6  CAJ       11.0860    3.1170    4.3030 C.3     1  DB81        0.1036
      7  CAK        9.4920    8.2870    4.1190 C.3     1  DB81        0.1072
      8  CAL        8.7730    5.5040    5.1430 C.3     1  DB81        0.0952
      9  CAM        9.8890   11.2920    6.8970 C.3     1  DB81        0.0246
     10  CAN        9.3820   10.1730    5.9840 C.3     1  DB81        0.2029
     11  CAO        7.5560   13.8950   11.4460 C.3     1  DB81       -0.1009
     12  CAP        7.6170   11.0720    9.6710 C.3     1  DB81       -0.1008
     13  CAQ        7.9030   12.8060    7.8800 C.3     1  DB81       -0.1008
     14  CAR        6.5990   12.0720   10.2220 C.3     1  DB81       -0.1009
     15  CAS        8.1910   13.5980    9.1550 C.3     1  DB81       -0.1009
     16  CAX       11.8320    1.8650    4.7670 C.2     1  DB81        0.1142
     17  CAY       11.1980    0.7150    5.2250 C.2     1  DB81       -0.0097
     18  CAZ        9.0300    1.5700    4.3390 C.2     1  DB81       -0.0300
     19  NAD       11.2530    2.7590    0.5620 N.1     1  DB81       -0.1911
     20  NAT       10.0510    7.2040    2.0220 N.pl3   1  DB81       -0.3316
     21  NAU        8.9970    3.5090    3.0510 N.pl3   1  DB81       -0.3159
     22  OAV        9.2040    6.4270    7.4090 O.2     1  DB81       -0.4726
     23  OAW        9.7790    8.8990    6.5050 O.2     1  DB81       -0.4767
     24  CBA       10.5390    4.8500    1.8720 C.2     1  DB81        0.0789
     25  CBB        9.6620    2.7250    3.8970 C.2     1  DB81        0.0252
     26  CBC        9.1640    6.6560    6.0700 C.2     1  DB81        0.1505
     27  CBD        9.4750    7.9260    5.6050 C.2     1  DB81        0.1514
     28  CBE        9.6100    4.6770    2.8860 C.2     1  DB81        0.0526
     29  CBF        9.6530    7.0200    3.2790 C.2     1  DB81        0.0272
     30  CBG        9.3630    5.7410    3.7480 C.2     1  DB81        0.0087
     31  NBH        7.8360   11.3880    8.2530 N.4     1  DB81        0.3842
     32  NBI        7.0950   13.4520   10.1230 N.4     1  DB81        0.3827
     33  CL1       12.1820   -0.6000    5.7650 C.3     1  DB81        0.0295
     34  CL2        7.4190    1.2580    3.7850 C.3     1  DB81        0.0277
     35  C01       13.6470    2.6990    3.6540 C.3     1  DB81        0.2519
     36  O02       13.1930    1.8700    4.7290 O.2     1  DB81       -0.4759
     37  HAA        7.6640   10.6690    7.5790 H       1  DB81       -0.0799
     38  HAB        6.3310   14.0360    9.8520 H       1  DB81       -0.0800
     39  HAC        9.2630    7.1330    1.4060 H       1  DB81        0.1468
     40  HAD        8.0690    3.6580    3.3930 H       1  DB81        0.1519
@<TRIPOS>BOND
     1    19     3    3
     2     3    24    1
     3    39    20    1
     4     4    24    1
     5     4    20    1
     6    24    28    2
     7    20    29    1
     8    28    21    1
     9    28    30    1
    10    21    40    1
    11    21    25    1
    12    29    30    2
    13    29     7    1
    14    35    36    1
    15    30     8    1
    16    34    18    1
    17    25     6    1
    18    25    18    2
    19     7    27    1
    20     6    16    1
    21    18     5    1
    22    36    16    1
    23    16    17    2
    24     8    26    1
    25    17     5    1
    26    17    33    1
    27    27    26    2
    28    27    23    1
    29    10    23    1
    30    10     9    1
    31    26    22    1
    32     9     2    1
    33    22     1    1
    34    37    31    1
    35    13    31    1
    36    13    15    1
    37    31     2    1
    38    31    12    1
    39    15    32    1
    40    12    14    1
    41    38    32    1
    42    32    14    1
    43    32    11    1
