@<TRIPOS>MOLECULE
4mxz_w_Lig.pdb
 40 43 0 0 0
SMALL
GASTEIGER

@<TRIPOS>ATOM
      1  CAA        9.2780    7.1590    9.3200 C.3     1  DB81        0.2521
      2  CAC        6.8490   12.4970    8.3460 C.3     1  DB81       -0.0737
      3  CAG       10.9930    4.7360    2.4220 C.1     1  DB81        0.0793
      4  CAH        9.9560    7.1050    2.3900 C.3     1  DB81        0.0898
      5  CAI        8.1410    2.1970    3.9480 C.ar    1  DB81       -0.0043
      6  CAJ       11.2340    2.5300    4.1510 C.ar    1  DB81        0.0508
      7  CAK        8.9900    9.2760    5.0250 C.3     1  DB81        0.0867
      8  CAL        9.7300    6.8490    6.7150 C.3     1  DB81        0.0910
      9  CAM        7.0680   12.3880    6.8360 C.3     1  DB81        0.0246
     10  CAN        8.1440   11.3590    6.4970 C.3     1  DB81        0.2029
     11  CAO        7.0910   16.0710   11.5560 C.3     1  DB81       -0.1009
     12  CAP        5.7580   13.2710   10.0680 C.3     1  DB81       -0.1008
     13  CAQ        6.5460   14.6450    8.1250 C.3     1  DB81       -0.1008
     14  CAR        5.3900   14.6020   10.7260 C.3     1  DB81       -0.1009
     15  CAS        7.3000   15.2190    9.3250 C.3     1  DB81       -0.1009
     16  CAX       10.5330    1.5290    3.2290 C.ar    1  DB81        0.1359
     17  CAY        9.1530    1.3920    3.1280 C.ar    1  DB81        0.0119
     18  CAZ        8.8430    3.3450    4.6760 C.ar    1  DB81       -0.0086
     19  NAD       11.4560    3.8520    1.8720 N.1     1  DB81       -0.1955
     20  NAT        8.8610    7.6940    3.1710 N.3     1  DB81       -0.2938
     21  NAU       10.6940    4.6910    5.1660 N.pl3   1  DB81       -0.3156
     22  OAV        8.3770    7.9090    8.5040 O.2     1  DB81       -0.4727
     23  OAW        7.7720   10.0840    7.0350 O.2     1  DB81       -0.4770
     24  CBA       10.4140    5.8420    3.1100 C.3     1  DB81        0.1419
     25  CBB       10.2180    3.5530    4.6690 C.ar    1  DB81        0.0471
     26  CBC        8.8620    7.9910    7.2390 C.2     1  DB81        0.1498
     27  CBD        8.5410    9.1110    6.4780 C.2     1  DB81        0.1474
     28  CBE       10.2690    5.7530    4.4900 C.2     1  DB81        0.0344
     29  CBF        9.2110    7.8820    4.4400 C.3     1  DB81        0.0819
     30  CBG        9.7260    6.8260    5.1840 C.2     1  DB81       -0.0117
     31  NBH        5.7940   13.4840    8.6140 N.4     1  DB81        0.3842
     32  NBI        6.3490   15.6550   10.3580 N.4     1  DB81        0.3827
     33  CL1        8.5360    0.2330    2.0010 C.3     1  DB81        0.0342
     34  CL2        7.8530    4.4470    5.5680 C.3     1  DB81        0.0323
     35  C01       12.5240    1.3930    2.1200 C.3     1  DB81        0.2525
     36  O02       11.3070    0.7180    2.4570 O.3     1  DB81       -0.4717
     37  HAA        5.1000   13.0240    8.0590 H       1  DB81       -0.0799
     38  HAB        5.8320   16.4430   10.0240 H       1  DB81       -0.0800
     39  HAC        8.0570    7.1040    3.1270 H       1  DB81        0.1235
     40  HAD       11.6920    4.6650    5.1630 H       1  DB81        0.1519
@<TRIPOS>BOND
     1    19     3    3
     2    33    17    1
     3    35    36    1
     4     4    24    1
     5     4    20    1
     6     3    24    1
     7    36    16    1
     8    24    28    1
     9    39    20    1
    10    17    16   ar
    11    17     5   ar
    12    20    29    1
    13    16     6   ar
    14     5    18   ar
    15     6    25   ar
    16    29     7    1
    17    29    30    1
    18    28    21    1
    19    28    30    2
    20    25    18   ar
    21    25    21    1
    22    18    34    1
    23     7    27    1
    24    40    21    1
    25    30     8    1
    26    27    23    1
    27    27    26    2
    28    10     9    1
    29    10    23    1
    30     8    26    1
    31     9     2    1
    32    26    22    1
    33    37    31    1
    34    13    31    1
    35    13    15    1
    36     2    31    1
    37    22     1    1
    38    31    12    1
    39    15    32    1
    40    38    32    1
    41    12    14    1
    42    32    14    1
    43    32    11    1
