@<TRIPOS>MOLECULE
4twp_w_Lig.pdb
 30 33 0 0 0
SMALL
GASTEIGER

@<TRIPOS>ATOM
      1  C01       -9.6460   -9.0340    7.5950 C.ar    1  AXI1        0.0191
      2  C02       -9.3370   -7.7110    7.8850 C.ar    1  AXI1        0.0814
      3  N03       -8.7710   -7.3860    9.0560 N.ar    1  AXI1       -0.2438
      4  C04       -8.4930   -8.3030    9.9640 C.ar    1  AXI1        0.0988
      5  C05       -8.7770   -9.6450    9.7350 C.ar    1  AXI1        0.0207
      6  C06       -9.3590  -10.0200    8.5310 C.ar    1  AXI1        0.0031
      7  C07       -9.9430   -1.9630    4.9020 C.ar    1  AXI1        0.0310
      8  C08       -9.5320   -2.6360    6.0480 C.ar    1  AXI1        0.0066
      9  C09       -9.6600   -4.0180    6.1330 C.ar    1  AXI1        0.0035
     10  C10      -10.2110   -4.7130    5.0630 C.ar    1  AXI1        0.0364
     11  C11      -10.6220   -4.0470    3.9180 C.ar    1  AXI1        0.1026
     12  C12      -10.4930   -2.6650    3.8360 C.ar    1  AXI1        0.0274
     13  C13      -10.4910   -6.0480    4.8060 C.ar    1  AXI1        0.0754
     14  N14      -11.0270   -6.0880    3.5910 N.ar    1  AXI1       -0.2757
     15  N15      -11.1030   -4.9660    3.0870 N.ar    1  AXI1       -0.1726
     16  C16      -10.2040   -7.0380    5.7380 C.2     1  AXI1        0.0200
     17  C17       -9.6210   -6.7140    6.9580 C.2     1  AXI1        0.0206
     18  C18       -8.0540   -0.0580    4.9990 C.ar    1  AXI1        0.0338
     19  C19       -7.2330   -1.1790    4.9510 C.ar    1  AXI1        0.0066
     20  C20       -5.8600   -1.0400    5.0960 C.ar    1  AXI1        0.0005
     21  C21       -5.3050    0.2160    5.3090 C.ar    1  AXI1        0.0002
     22  C22       -6.1240    1.3380    5.3580 C.ar    1  AXI1        0.0050
     23  C23       -7.5000    1.2000    5.2040 C.ar    1  AXI1        0.0593
     24  S24       -9.7880   -0.2240    4.8100 S.3     1  AXI1       -0.0867
     25  C80       -8.4010    2.4370    5.2450 C.2     1  AXI1        0.2464
     26  O81       -9.5930    2.3630    4.9560 O.2     1  AXI1       -0.2701
     27  N82       -7.7890    3.5640    5.5960 N.am    1  AXI1       -0.2991
     28  C88       -8.6090    4.7830    5.6520 C.3     1  AXI1        0.1109
     29  HAA      -11.3510   -6.8960    3.0970 H       1  AXI1        0.1889
     30  HAB       -6.8140    3.6070    5.8160 H       1  AXI1        0.1498
@<TRIPOS>BOND
     1    15    14   ar
     2    15    11   ar
     3    29    14    1
     4    14    13   ar
     5    12    11   ar
     6    12     7   ar
     7    11    10   ar
     8    13    10   ar
     9    13    16    1
    10    24     7    1
    11    24    18    1
    12     7     8   ar
    13    19    18   ar
    14    19    20   ar
    15    26    25    2
    16    18    23   ar
    17    10     9   ar
    18    20    21   ar
    19    23    25    1
    20    23    22   ar
    21    25    27   am
    22    21    22   ar
    23    27    28    1
    24    27    30    1
    25    16    17    2
    26     8     9   ar
    27    17     2    1
    28     1     2   ar
    29     1     6   ar
    30     2     3   ar
    31     6     5   ar
    32     3     4   ar
    33     5     4   ar
