@<TRIPOS>MOLECULE
5ap0_w_Lig.pdb
 35 39 0 0 0
SMALL
GASTEIGER

@<TRIPOS>ATOM
      1  N        -11.0780   -5.8670    4.6220 N.ar    1  A5U1       -0.2104
      2  C        -10.2640   -5.5890    5.6530 C.ar    1  A5U1        0.2222
      3  O         -9.9870   -0.4960    3.2300 O.2     1  A5U1       -0.2462
      4  C1        -9.9480   -3.4220    4.8720 C.ar    1  A5U1        0.1676
      5  N1        -9.6950   -4.3790    5.7800 N.ar    1  A5U1       -0.1945
      6  O1        -9.8360   -8.5290    8.3860 O.3     1  A5U1       -0.4701
      7  C2       -10.7930   -3.6980    3.8030 C.ar    1  A5U1        0.1176
      8  N2       -10.8760   -2.5860    3.0760 N.ar    1  A5U1       -0.2751
      9  O2        -6.8080   -5.8680   10.9210 O.3     1  A5U1       -0.4792
     10  C3       -11.3550   -4.9650    3.6980 C.ar    1  A5U1        0.1221
     11  N3        -9.5680   -2.1550    4.7370 N.ar    1  A5U1       -0.2668
     12  C4       -10.1310   -1.6460    3.6480 C.ar    1  A5U1        0.3327
     13  N4       -10.0690   -6.5340    6.5720 N.pl3   1  A5U1       -0.2801
     14  C5        -8.6630   -1.4280    5.6390 C.3     1  A5U1        0.0913
     15  N5        -6.7780   -2.0870   12.6780 N.4     1  A5U1        0.3857
     16  C6        -8.7480   -1.9350    7.0830 C.3     1  A5U1        0.0228
     17  C7        -7.2920   -2.0500    7.5330 C.3     1  A5U1        0.0020
     18  C8        -6.5510   -1.1310    6.5590 C.3     1  A5U1        0.0020
     19  C9        -7.1940   -1.5950    5.2530 C.3     1  A5U1        0.0228
     20  C10      -11.6660   -2.4260    1.8360 C.3     1  A5U1        0.1352
     21  C11       -9.2660   -6.3510    7.6170 C.ar    1  A5U1        0.0851
     22  C12       -8.5770   -5.1580    7.7990 C.ar    1  A5U1        0.0209
     23  C13       -7.7560   -4.9880    8.9100 C.ar    1  A5U1        0.0384
     24  C14       -7.6240   -6.0160    9.8390 C.ar    1  A5U1        0.1415
     25  C15       -8.3190   -7.2080    9.6600 C.ar    1  A5U1        0.0750
     26  C16       -9.1370   -7.3740    8.5500 C.ar    1  A5U1        0.1551
     27  C17       -9.1360   -9.6190    8.9870 C.3     1  A5U1        0.2525
     28  C18       -6.7990   -4.4970   11.3500 C.3     1  A5U1        0.1617
     29  C19       -8.1430   -4.0340   11.9110 C.3     1  A5U1        0.0207
     30  C20       -8.1010   -2.5350   12.2190 C.3     1  A5U1       -0.0738
     31  C21       -6.3890   -3.2700   13.4630 C.3     1  A5U1       -0.0738
     32  C22       -5.8280   -4.3310   12.5160 C.3     1  A5U1        0.0207
     33  C23       -6.6790   -1.1530   13.8080 C.3     1  A5U1       -0.1007
     34  HAA       -6.0370   -2.1700   12.0130 H       1  A5U1       -0.0798
     35  HAB      -10.5440   -7.4080    6.4700 H       1  A5U1        0.1552
@<TRIPOS>BOND
     1    20     8    1
     2     8    12   ar
     3     8     7   ar
     4     3    12    2
     5    12    11   ar
     6    10     7   ar
     7    10     1   ar
     8     7     4   ar
     9     1     2   ar
    10    11     4   ar
    11    11    14    1
    12     4     5   ar
    13    19    14    1
    14    19    18    1
    15    14    16    1
    16     2     5   ar
    17     2    13    1
    18    35    13    1
    19    18    17    1
    20    13    21    1
    21    16    17    1
    22    21    22   ar
    23    21    26   ar
    24    22    23   ar
    25     6    26    1
    26     6    27    1
    27    26    25   ar
    28    23    24   ar
    29    25    24   ar
    30    24     9    1
    31     9    28    1
    32    28    29    1
    33    28    32    1
    34    29    30    1
    35    34    15    1
    36    30    15    1
    37    32    31    1
    38    15    31    1
    39    15    33    1
