@<TRIPOS>MOLECULE
5ap1_w_Lig.pdb
 34 37 0 0 0
SMALL
GASTEIGER

@<TRIPOS>ATOM
      1  N          6.4700   -6.9530  -10.7770 N.ar    1  O381       -0.2473
      2  C          6.2570   -7.8710  -11.9190 C.3     1  O381        0.1538
      3  O          8.7120   -8.1960   -7.8690 O.3     1  O381       -0.4592
      4  C1         7.2580   -7.2160   -9.7460 C.ar    1  O381        0.0968
      5  N1         5.9370   -5.8510  -10.6680 N.ar    1  O381       -0.1676
      6  C2         7.1780   -6.1600   -8.9440 C.ar    1  O381        0.0425
      7  N2         9.9410   -5.4290   -4.2380 N.pl3   1  O381       -0.2978
      8  C3         6.3490   -5.2990   -9.5310 C.ar    1  O381        0.1217
      9  N3         9.6260    0.2380   -0.7810 N.1     1  O381       -0.1907
     10  C4         7.8420   -5.9820   -7.7330 C.ar    1  O381        0.0372
     11  N4         8.2440   -1.1470   -3.6670 N.pl3   1  O381       -0.3192
     12  C5         7.7390   -4.7770   -7.0490 C.ar    1  O381        0.0044
     13  N5         9.1020   -3.2790   -3.9470 N.ar    1  O381       -0.2155
     14  C6         8.4370   -4.5840   -5.8640 C.ar    1  O381        0.0148
     15  N6        11.5960   -7.9150   -9.5570 N.1     1  O381       -0.1920
     16  C7         9.2550   -5.5930   -5.3660 C.ar    1  O381        0.0524
     17  C8         9.8720   -4.3000   -3.5360 C.ar    1  O381        0.1336
     18  C9        10.6190   -4.1880   -2.3670 C.ar    1  O381        0.0352
     19  C10       10.5620   -3.0150   -1.6240 C.ar    1  O381        0.0160
     20  C11        9.7570   -1.9770   -2.0760 C.ar    1  O381        0.0998
     21  C12        9.6870   -0.7470   -1.3550 C.1     1  O381        0.1032
     22  C13        9.0290   -2.1360   -3.2510 C.ar    1  O381        0.1395
     23  C14        7.4500   -1.2490   -4.9000 C.3     1  O381        0.0704
     24  C15        6.0590   -0.6550   -4.6650 C.3     1  O381        0.0195
     25  C16        5.2220   -0.7160   -5.9460 C.3     1  O381        0.0017
     26  C17        5.9240    0.0400   -7.0740 C.3     1  O381        0.0001
     27  C18        7.3220   -0.5400   -7.3120 C.3     1  O381        0.0017
     28  C19        8.1470   -0.4850   -6.0240 C.3     1  O381        0.0195
     29  C20        9.3570   -6.7970   -6.0510 C.ar    1  O381        0.0516
     30  C21        8.6520   -6.9970   -7.2320 C.ar    1  O381        0.1414
     31  C22       10.0060   -8.7950   -7.6940 C.3     1  O381        0.3090
     32  C23       10.9040   -8.2970   -8.7390 C.1     1  O381        0.1218
     33  HAA       10.5220   -6.1720   -3.9090 H       1  O381        0.1536
     34  HAB        8.1650   -0.2930   -3.1540 H       1  O381        0.1482
@<TRIPOS>BOND
     1     2     1    1
     2     1     5   ar
     3     1     4   ar
     4     5     8   ar
     5     4     6   ar
     6    15    32    3
     7     8     6   ar
     8     6    10    1
     9    32    31    1
    10     3    31    1
    11     3    30    1
    12    10    30   ar
    13    10    12   ar
    14    27    26    1
    15    27    28    1
    16    30    29   ar
    17    26    25    1
    18    12    14   ar
    19    29    16   ar
    20    28    23    1
    21    25    24    1
    22    14    16   ar
    23    16     7    1
    24    23    24    1
    25    23    11    1
    26     7    33    1
    27     7    17    1
    28    13    17   ar
    29    13    22   ar
    30    11    22    1
    31    11    34    1
    32    17    18   ar
    33    22    20   ar
    34    18    19   ar
    35    20    19   ar
    36    20    21    1
    37    21     9    3
