@<TRIPOS>MOLECULE
5ap4_w_Lig.pdb
 34 37 0 0 0
SMALL
GASTEIGER

@<TRIPOS>ATOM
      1  N          6.3730    7.5350   11.1090 N.ar    1  O381       -0.2473
      2  C          6.1920    8.5820   12.1350 C.3     1  O381        0.1538
      3  O          8.6150    8.3830    8.0600 O.3     1  O381       -0.4592
      4  C1         7.1380    7.6680   10.0300 C.ar    1  O381        0.0968
      5  N1         5.8370    6.4280   11.1430 N.ar    1  O381       -0.1676
      6  C2         7.0380    6.5240    9.3640 C.ar    1  O381        0.0425
      7  N2         9.6860    5.2050    4.7220 N.pl3   1  O381       -0.2978
      8  C3         6.2190    5.7460   10.0650 C.ar    1  O381        0.1217
      9  N3         9.3240   -0.8300    1.9750 N.1     1  O381       -0.1907
     10  C4         7.6730    6.1970    8.1720 C.ar    1  O381        0.0372
     11  N4         8.0330    0.8630    4.7190 N.pl3   1  O381       -0.3192
     12  C5         7.5420    4.9180    7.6380 C.ar    1  O381        0.0044
     13  N5         8.8670    3.0310    4.7230 N.ar    1  O381       -0.2155
     14  C6         8.2100    4.5790    6.4670 C.ar    1  O381        0.0148
     15  N6        11.5710    7.5370    9.3950 N.1     1  O381       -0.1920
     16  C7         9.0190    5.5160    5.8320 C.ar    1  O381        0.0524
     17  C8         9.6150    3.9980    4.1710 C.ar    1  O381        0.1336
     18  C9        10.3230    3.7560    3.0010 C.ar    1  O381        0.0352
     19  C10       10.2660    2.5050    2.4020 C.ar    1  O381        0.0160
     20  C11        9.4800    1.5210    2.9990 C.ar    1  O381        0.0998
     21  C12        9.3970    0.2120    2.4260 C.1     1  O381        0.1032
     22  C13        8.7840    1.8120    4.1670 C.ar    1  O381        0.1395
     23  C14        7.2720    1.0900    5.9560 C.3     1  O381        0.0704
     24  C15        7.7360    0.0960    7.0230 C.3     1  O381        0.0195
     25  C16        6.9280    0.2700    8.3120 C.3     1  O381        0.0017
     26  C17        5.4370    0.0770    8.0360 C.3     1  O381        0.0001
     27  C18        4.9650    1.0580    6.9600 C.3     1  O381        0.0017
     28  C19        5.7830    0.8770    5.6790 C.3     1  O381        0.0195
     29  C20        9.1560    6.7880    6.3680 C.ar    1  O381        0.0516
     30  C21        8.4790    7.1340    7.5340 C.ar    1  O381        0.1414
     31  C22        9.9500    8.8680    7.8440 C.3     1  O381        0.3090
     32  C23       10.8670    8.1200    8.7120 C.1     1  O381        0.1218
     33  HAA       10.2570    5.9040    4.2900 H       1  O381        0.1536
     34  HAB        7.9540   -0.0420    4.3050 H       1  O381        0.1482
@<TRIPOS>BOND
     1     9    21    3
     2    19    20   ar
     3    19    18   ar
     4    21    20    1
     5    20    22   ar
     6    18    17   ar
     7    22    11    1
     8    22    13   ar
     9    17     7    1
    10    17    13   ar
    11    33     7    1
    12    34    11    1
    13    11    23    1
    14     7    16    1
    15    28    23    1
    16    28    27    1
    17    16    29   ar
    18    16    14   ar
    19    23    24    1
    20    29    30   ar
    21    14    12   ar
    22    27    26    1
    23    24    25    1
    24    30     3    1
    25    30    10   ar
    26    12    10   ar
    27    31     3    1
    28    31    32    1
    29    26    25    1
    30    10     6    1
    31    32    15    3
    32     6     4   ar
    33     6     8   ar
    34     4     1   ar
    35     8     5   ar
    36     1     5   ar
    37     1     2    1
