@<TRIPOS>MOLECULE
5em7_B_w_Lig.pdb
 36 39 0 0 0
SMALL
GASTEIGER

@<TRIPOS>ATOM
      1  C1         4.2690    9.2490   13.0840 C.3     1  5Q41       -0.1005
      2  N2         4.7300    8.3700   11.9980 N.4     1  5Q41        0.3878
      3  C3         5.8130    9.0280   11.2530 C.3     1  5Q41       -0.0556
      4  C4         6.2900    8.1050   10.1280 C.3     1  5Q41        0.0680
      5  N5         6.7900    6.8470   10.7020 N.pl3   1  5Q41       -0.3118
      6  C6         5.7110    6.1900   11.4520 C.3     1  5Q41        0.0680
      7  C7         5.2320    7.1150   12.5720 C.3     1  5Q41       -0.0556
      8  C8         7.2310    6.0590    9.7280 C.ar    1  5Q41        0.0478
      9  C9         8.2520    6.4960    8.8980 C.ar    1  5Q41        0.0158
     10  C10        8.7080    5.6840    7.8650 C.ar    1  5Q41        0.0159
     11  C11        8.1420    4.4320    7.6640 C.ar    1  5Q41        0.0506
     12  C12        7.1200    3.9910    8.4960 C.ar    1  5Q41        0.0159
     13  C13        6.6630    4.8070    9.5230 C.ar    1  5Q41        0.0158
     14  N14        8.5880    3.6670    6.6660 N.am    1  5Q41       -0.2802
     15  C15        8.0540    2.4700    6.4520 C.2     1  5Q41        0.2554
     16  O16        7.1470    1.9820    7.1320 O.2     1  5Q41       -0.2696
     17  C17        8.6520    1.6870    5.2770 C.ar    1  5Q41        0.1228
     18  C18        8.2030    0.3970    5.0070 C.ar    1  5Q41        0.0589
     19  C19        8.7780   -0.3320    3.9730 C.ar    1  5Q41        0.0334
     20  C20        9.7970    0.2150    3.2040 C.ar    1  5Q41        0.0760
     21  N21       10.2450    1.5130    3.4690 N.ar    1  5Q41       -0.3197
     22  C23        9.6680    2.2500    4.5120 C.ar    1  5Q41        0.2633
     23  O24       10.0560    3.3970    4.7380 O.2     1  5Q41       -0.2670
     24  N25        7.1910   -0.1000    5.7180 N.pl3   1  5Q41       -0.3099
     25  C26        6.7120   -1.3240    5.5180 C.ar    1  5Q41        0.0828
     26  C27        7.2610   -2.1810    4.5720 C.ar    1  5Q41        0.0177
     27  C28        6.7520   -3.4620    4.3990 C.ar    1  5Q41        0.0015
     28  C29        5.6880   -3.8970    5.1810 C.ar    1  5Q41        0.0032
     29  C30        5.1380   -3.0460    6.1300 C.ar    1  5Q41        0.0382
     30  C31        5.6460   -1.7620    6.2970 C.ar    1  5Q41        0.1520
     31  O32        5.0910   -0.9300    7.2170 O.3     1  5Q41       -0.4702
     32  C33        5.7590   -1.0760    8.4750 C.3     1  5Q41        0.2525
     33  HAA        3.9760    8.1640   11.3760 H       1  5Q41       -0.0797
     34  HAB        9.3280    4.0220    6.0910 H       1  5Q41        0.1552
     35  HAD        6.7690    0.4750    6.4180 H       1  5Q41        0.1523
     36  H22       10.9770    1.9130    2.9200 H       1  5Q41        0.1690
@<TRIPOS>BOND
     1    36    21    1
     2    20    21   ar
     3    20    19   ar
     4    21    22   ar
     5    19    18   ar
     6    27    26   ar
     7    27    28   ar
     8    22    23    2
     9    22    17   ar
    10    26    25   ar
    11    18    17   ar
    12    18    24    1
    13    28    29   ar
    14    17    15    1
    15    25    24    1
    16    25    30   ar
    17    24    35    1
    18    34    14    1
    19    29    30   ar
    20    30    31    1
    21    15    14   am
    22    15    16    2
    23    14    11    1
    24    31    32    1
    25    11    10   ar
    26    11    12   ar
    27    10     9   ar
    28    12    13   ar
    29     9     8   ar
    30    13     8   ar
    31     8     5    1
    32     4     5    1
    33     4     3    1
    34     5     6    1
    35     3     2    1
    36    33     2    1
    37     6     7    1
    38     2     7    1
    39     2     1    1
