@<TRIPOS>MOLECULE
5em7_A_w_Lig.pdb
 36 39 0 0 0
SMALL
GASTEIGER

@<TRIPOS>ATOM
      1  C1         4.4060    8.5220   13.5460 C.3     1  5Q41       -0.1005
      2  N2         4.8270    7.6860   12.4130 N.4     1  5Q41        0.3878
      3  C3         5.6830    8.4670   11.5080 C.3     1  5Q41       -0.0556
      4  C4         6.1320    7.5900   10.3360 C.3     1  5Q41        0.0680
      5  N5         6.8820    6.4330   10.8450 N.pl3   1  5Q41       -0.3118
      6  C6         6.0290    5.6540   11.7520 C.3     1  5Q41        0.0680
      7  C7         5.5870    6.5370   12.9220 C.3     1  5Q41       -0.0556
      8  C8         7.2680    5.6770    9.8210 C.ar    1  5Q41        0.0478
      9  C9         8.1500    6.1850    8.8750 C.ar    1  5Q41        0.0158
     10  C10        8.5360    5.4030    7.7930 C.ar    1  5Q41        0.0159
     11  C11        8.0420    4.1090    7.6540 C.ar    1  5Q41        0.0506
     12  C12        7.1640    3.6000    8.6020 C.ar    1  5Q41        0.0159
     13  C13        6.7770    4.3810    9.6860 C.ar    1  5Q41        0.0158
     14  N14        8.4040    3.3750    6.6060 N.am    1  5Q41       -0.2802
     15  C15        7.9220    2.1460    6.4580 C.2     1  5Q41        0.2554
     16  O16        7.1310    1.6170    7.2390 O.2     1  5Q41       -0.2696
     17  C17        8.4110    1.3960    5.2130 C.ar    1  5Q41        0.1228
     18  C18        8.0040    0.0860    4.9920 C.ar    1  5Q41        0.0589
     19  C19        8.4340   -0.5830    3.8530 C.ar    1  5Q41        0.0334
     20  C20        9.2720    0.0400    2.9350 C.ar    1  5Q41        0.0760
     21  N21        9.6820    1.3590    3.1590 N.ar    1  5Q41       -0.3197
     22  C23        9.2450    2.0370    4.3050 C.ar    1  5Q41        0.2633
     23  O24        9.6050    3.1970    4.4950 O.2     1  5Q41       -0.2670
     24  N25        7.2380   -0.5210    5.8950 N.pl3   1  5Q41       -0.3099
     25  C26        6.8000   -1.7690    5.7420 C.ar    1  5Q41        0.0828
     26  C27        7.0860   -2.5090    4.6000 C.ar    1  5Q41        0.0177
     27  C28        6.5770   -3.7930    4.4470 C.ar    1  5Q41        0.0015
     28  C29        5.7820   -4.3480    5.4430 C.ar    1  5Q41        0.0032
     29  C30        5.4980   -3.6140    6.5880 C.ar    1  5Q41        0.0382
     30  C31        6.0040   -2.3280    6.7340 C.ar    1  5Q41        0.1520
     31  O32        5.7450   -1.6290    7.8710 O.3     1  5Q41       -0.4702
     32  C33        6.7500   -1.9110    8.8460 C.3     1  5Q41        0.2525
     33  HAA        4.0240    7.3560   11.9120 H       1  5Q41       -0.0797
     34  HAB        9.0360    3.7760    5.9400 H       1  5Q41        0.1552
     35  HAD        6.9770   -0.0220    6.7200 H       1  5Q41        0.1523
     36  H22       10.2840    1.8150    2.5060 H       1  5Q41        0.1690
@<TRIPOS>BOND
     1    36    21    1
     2    20    21   ar
     3    20    19   ar
     4    21    22   ar
     5    19    18   ar
     6    22    23    2
     7    22    17   ar
     8    27    26   ar
     9    27    28   ar
    10    26    25   ar
    11    18    17   ar
    12    18    24    1
    13    17    15    1
    14    28    29   ar
    15    25    24    1
    16    25    30   ar
    17    24    35    1
    18    34    14    1
    19    15    14   am
    20    15    16    2
    21    29    30   ar
    22    14    11    1
    23    30    31    1
    24    11    10   ar
    25    11    12   ar
    26    10     9   ar
    27    31    32    1
    28    12    13   ar
    29     9     8   ar
    30    13     8   ar
    31     8     5    1
    32     4     5    1
    33     4     3    1
    34     5     6    1
    35     3     2    1
    36     6     7    1
    37    33     2    1
    38     2     7    1
    39     2     1    1
