@<TRIPOS>MOLECULE
1xh9_w_Lig.pdb
 41 44 0 0 0
SMALL
GASTEIGER

@<TRIPOS>ATOM
      1  N11        7.8170    8.5080    2.6810 N.ar    1  R691       -0.2423
      2  C12        7.8440    7.6040    1.7160 C.ar    1  R691        0.0990
      3  C13        7.5480    6.2710    1.9830 C.ar    1  R691        0.0252
      4  C14        7.2230    5.8950    3.2790 C.ar    1  R691        0.0564
      5  C15        7.2070    6.8720    4.2680 C.ar    1  R691        0.0252
      6  C16        7.5120    8.1850    3.9260 C.ar    1  R691        0.0990
      7  C21        6.8840    4.4430    3.6090 C.2     1  R691        0.2459
      8  O22        7.0350    3.5530    2.7740 O.2     1  R691       -0.2701
      9  N23        6.4210    4.2280    4.8360 N.am    1  R691       -0.3030
     10  C31        6.0610    2.8840    5.3060 C.3     1  R691        0.0685
     11  C32        4.5950    2.9000    5.7370 C.3     1  R691       -0.0600
     12  N33        4.2170    1.6020    6.3120 N.4     1  R691        0.3849
     13  C34        4.1360    1.7350    7.7730 C.3     1  R691       -0.0816
     14  C35        5.5340    1.7380    8.3960 C.3     1  R691       -0.0216
     15  C36        6.4530    2.8260    7.8340 C.3     1  R691        0.0190
     16  C37        6.9990    2.4830    6.4470 C.3     1  R691        0.0875
     17  N41        7.3240    1.0510    6.3770 N.am    1  R691       -0.3009
     18  C42        8.4420    0.5650    6.9130 C.2     1  R691        0.2458
     19  O43        9.2660    1.2550    7.5130 O.2     1  R691       -0.2701
     20  C51        8.6470   -0.9430    6.7580 C.ar    1  R691        0.0534
     21  C52        9.8080   -1.5330    7.2440 C.ar    1  R691        0.0046
     22  C53        9.9980   -2.9030    7.1160 C.ar    1  R691        0.0030
     23  C54        9.0220   -3.6840    6.5020 C.ar    1  R691        0.0355
     24  C55        7.8660   -3.0940    6.0090 C.ar    1  R691        0.0030
     25  C56        7.6780   -1.7230    6.1390 C.ar    1  R691        0.0046
     26  C61        9.1960   -5.2050    6.4480 C.2     1  R691        0.1841
     27  O62        9.8980   -5.7720    7.2850 O.2     1  R691       -0.2905
     28  C71        8.4900   -6.0190    5.3610 C.3     1  R691        0.1466
     29  C72        8.1580   -5.4310    4.1430 C.2     1  R691        0.1842
     30  C73        7.5240   -6.1830    3.1590 C.2     1  R691        0.0395
     31  C74        7.2270   -7.5210    3.3880 C.2     1  R691        0.0172
     32  C75        7.5510   -8.1040    4.6060 C.2     1  R691        0.0446
     33  C76        8.1840   -7.3550    5.5920 C.2     1  R691        0.0035
     34  O92        8.4550   -4.2580    3.9200 O.2     1  R691       -0.2905
     35  N95        7.2580   -9.3830    4.8320 N.pl3   1  R691       -0.3043
     36  C98        7.8860  -10.2140    3.7910 C.3     1  R691        0.1122
     37  C99        5.7990   -9.5590    4.7760 C.3     1  R691        0.1122
     38  HAA        4.9110    0.9150    6.0840 H       1  R691       -0.0844
     39  HAB        3.3320    1.3100    5.9470 H       1  R691       -0.0844
     40  HAC        6.2870    4.9620    5.5060 H       1  R691        0.1497
     41  HAD        6.6510    0.4810    5.9050 H       1  R691        0.1497
@<TRIPOS>BOND
     1     2     3   ar
     2     2     1   ar
     3     3     4   ar
     4     1     6   ar
     5     8     7    2
     6    30    31    2
     7    30    29    1
     8     4     7    1
     9     4     5   ar
    10    31    32    1
    11     7     9   am
    12    36    35    1
    13    34    29    2
    14     6     5   ar
    15    29    28    1
    16    32    35    1
    17    32    33    2
    18    37    35    1
    19     9    10    1
    20     9    40    1
    21    10    11    1
    22    10    16    1
    23    28    33    1
    24    28    26    1
    25    11    12    1
    26    41    17    1
    27    39    12    1
    28    24    25   ar
    29    24    23   ar
    30    38    12    1
    31    25    20   ar
    32    12    13    1
    33    17    16    1
    34    17    18   am
    35    16    15    1
    36    26    23    1
    37    26    27    2
    38    23    22   ar
    39    20    18    1
    40    20    21   ar
    41    18    19    2
    42    22    21   ar
    43    13    14    1
    44    15    14    1
