@<TRIPOS>MOLECULE
2ity_w_Lig.pdb
 33 36 0 0 0
SMALL
GASTEIGER

@<TRIPOS>ATOM
      1  CAA        9.2840    7.7660    7.8850 C.3     1  IRE1        0.2526
      2  CAD        6.6310   -2.1370    4.7370 C.ar    1  IRE1        0.0306
      3  CAE        6.6530   -0.9380    5.4450 C.ar    1  IRE1        0.0169
      4  CAG        8.1540   -0.0030    3.8130 C.ar    1  IRE1        0.0126
      5  CAH        8.8270    5.7840    6.2100 C.ar    1  IRE1        0.0593
      6  CAI        7.3500    3.6160    7.1340 C.ar    1  IRE1        0.0443
      7  CAJ        5.3730    3.7350   10.6920 C.3     1  IRE1        0.0246
      8  CAK        6.4580    3.6730    9.6120 C.3     1  IRE1        0.2034
      9  CAL        7.1360    5.1030   14.7720 C.3     1  IRE1        0.1194
     10  CAM        5.4930    3.4750   14.1190 C.3     1  IRE1        0.1194
     11  CAN        5.6890    4.7870   11.7570 C.3     1  IRE1       -0.0733
     12  CAO        6.9080    5.6180   13.3480 C.3     1  IRE1       -0.0446
     13  CAP        6.4870    3.1710   12.9960 C.3     1  IRE1       -0.0446
     14  CAW        7.3760   -2.2700    3.5700 C.ar    1  IRE1        0.1362
     15  CAX        8.1380   -1.2010    3.1100 C.ar    1  IRE1        0.0068
     16  CAY        7.4090    0.1320    4.9810 C.ar    1  IRE1        0.0492
     17  CAZ        8.0710    5.9010    7.3720 C.ar    1  IRE1        0.1739
     18  NAS        7.4090    1.2770    5.6580 N.pl3   1  IRE1       -0.2979
     19  OAT        8.0480    7.0750    8.0560 O.3     1  IRE1       -0.4683
     20  OAU        6.1050    4.2000   15.1960 O.3     1  IRE1       -0.3582
     21  OAV        6.5680    4.9450    8.9530 O.3     1  IRE1       -0.4725
     22  CBA        7.3320    4.8170    7.8340 C.ar    1  IRE1        0.1724
     23  NBE        6.9400    4.4550   12.4520 N.4     1  IRE1        0.3904
     24  CL         9.0670   -1.3620    1.6580 C.3     1  IRE1        0.0334
     25  N1         8.8540    2.2710    4.1230 N.ar    1  IRE1       -0.2089
     26  C2         9.5450    3.3200    3.7100 C.ar    1  IRE1        0.2000
     27  N3         9.5460    4.4570    4.3790 N.ar    1  IRE1       -0.2238
     28  C4         8.8370    4.5850    5.5090 C.ar    1  IRE1        0.0890
     29  C5         8.0980    3.5060    5.9720 C.ar    1  IRE1        0.0526
     30  C6         8.1220    2.3250    5.2440 C.ar    1  IRE1        0.1354
     31  FAB        7.3490   -3.4270    2.8800 F       1  IRE1       -0.2045
     32  HAA        7.5150    4.5130   11.6340 H       1  IRE1       -0.0795
     33  HAB        6.8640    1.3550    6.4900 H       1  IRE1        0.1536
@<TRIPOS>BOND
     1    24    15    1
     2    31    14    1
     3    15    14   ar
     4    15     4   ar
     5    14     2   ar
     6    26    25   ar
     7    26    27   ar
     8     4    16   ar
     9    25    30   ar
    10    27    28   ar
    11     2     3   ar
    12    16     3   ar
    13    16    18    1
    14    30    18    1
    15    30    29   ar
    16    28    29   ar
    17    28     5   ar
    18    18    33    1
    19    29     6   ar
    20     5    17   ar
    21     6    22   ar
    22    17    22   ar
    23    17    19    1
    24    22    21    1
    25     1    19    1
    26    21     8    1
    27     8     7    1
    28     7    11    1
    29    32    23    1
    30    11    23    1
    31    23    13    1
    32    23    12    1
    33    13    10    1
    34    12     9    1
    35    10    20    1
    36     9    20    1
