@<TRIPOS>MOLECULE
2iw8_w_Lig.pdb
 33 36 0 0 0
SMALL
GASTEIGER

@<TRIPOS>ATOM
      1  N1        12.4710   -4.0500   -4.1440 N.2     1  4SP1       -0.3140
      2  C2        13.2250   -5.0390   -3.6420 C.cat   1  4SP1        0.3917
      3  N2        13.3160   -6.2090   -4.2700 N.pl3   1  4SP1       -0.2505
      4  N3        13.9050   -4.8720   -2.4960 N.2     1  4SP1        0.0125
      5  C4        13.8470   -3.7110   -1.8310 C.2     1  4SP1        0.3854
      6  C5        13.0760   -2.6750   -2.3340 C.3     1  4SP1        0.2754
      7  C6        12.3800   -2.8670   -3.5180 C.2     1  4SP1        0.2882
      8  O6        11.5960   -1.8760   -4.0140 O.2     1  4SP1       -0.4532
      9  N7        13.1900   -1.6520   -1.4900 N.pl3   1  4SP1       -0.2765
     10  C8        13.9960   -2.0250   -0.5000 C.2     1  4SP1        0.3020
     11  N9        14.3990   -3.2780   -0.7020 N.2     1  4SP1       -0.0153
     12  C10       11.5460   -1.9570   -5.4480 C.3     1  4SP1        0.2078
     13  C11       10.7260   -0.7760   -5.9740 C.3     1  4SP1        0.0438
     14  C12       10.6390   -0.8150   -7.5050 C.3     1  4SP1        0.0037
     15  C13        9.8230    0.3680   -8.0270 C.3     1  4SP1        0.0001
     16  C14        8.4150    0.3550   -7.4280 C.3     1  4SP1        0.0000
     17  C15        8.4930    0.3920   -5.9020 C.3     1  4SP1        0.0001
     18  C16        9.3130   -0.7910   -5.3850 C.3     1  4SP1        0.0037
     19  C17       12.6720   -6.4450   -5.4100 C.ar    1  4SP1        0.0533
     20  C18       11.8700   -5.4740   -6.0020 C.ar    1  4SP1        0.0160
     21  C19       11.2370   -5.7330   -7.2070 C.ar    1  4SP1        0.0176
     22  C20       11.4040   -6.9630   -7.8360 C.ar    1  4SP1        0.0892
     23  C21       12.2030   -7.9350   -7.2450 C.ar    1  4SP1        0.0176
     24  C22       12.8340   -7.6770   -6.0340 C.ar    1  4SP1        0.0160
     25  S23       10.6580   -7.2740   -9.3860 S.O2    1  4SP1       -0.0237
     26  O24        9.8560   -8.5420   -9.3080 O.2     1  4SP1       -0.1851
     27  O25       11.7320   -7.4660  -10.4170 O.2     1  4SP1       -0.1851
     28  N26        9.7080   -6.0190   -9.8120 N.4     1  4SP1        0.4312
     29  HAA        9.8600   -5.4340   -9.0120 H       1  4SP1       -0.0539
     30  HAB        8.7170   -6.0940   -9.7100 H       1  4SP1       -0.0539
     31  HAC       10.1140   -5.4100  -10.4930 H       1  4SP1       -0.0539
     32  HAD       13.8820   -6.9300   -3.8730 H       1  4SP1        0.1582
     33  HAE       12.7490   -0.7580   -1.5860 H       1  4SP1        0.1513
@<TRIPOS>BOND
     1    31    28    1
     2    27    25    2
     3    28    30    1
     4    28    25    1
     5    28    29    1
     6    25    26    2
     7    25    22    1
     8    15    14    1
     9    15    16    1
    10    22    23   ar
    11    22    21   ar
    12    14    13    1
    13    16    17    1
    14    23    24   ar
    15    21    20   ar
    16    24    19   ar
    17    20    19   ar
    18    13    12    1
    19    13    18    1
    20    17    18    1
    21    12     8    1
    22    19     3    1
    23     3    32    1
    24     3     2    1
    25     1     2    2
    26     1     7    2
    27     8     7    1
    28     2     4    1
    29     7     6    1
    30     4     5    2
    31     6     5    1
    32     6     9    1
    33     5    11    1
    34    33     9    1
    35     9    10    1
    36    11    10    2
