@<TRIPOS>MOLECULE
2iw9_w_Lig.pdb
 33 36 0 0 0
SMALL
GASTEIGER

@<TRIPOS>ATOM
      1  N1        12.9120   -3.3760   -4.7670 N.2     1  4SP1       -0.3140
      2  C2        13.7280   -4.3660   -4.3710 C.cat   1  4SP1        0.3917
      3  N2        13.8140   -5.4910   -5.0760 N.pl3   1  4SP1       -0.2505
      4  N3        14.4840   -4.2330   -3.2710 N.2     1  4SP1        0.0125
      5  C4        14.4440   -3.1060   -2.5460 C.2     1  4SP1        0.3854
      6  C5        13.6040   -2.0730   -2.9370 C.3     1  4SP1        0.2754
      7  C6        12.8260   -2.2320   -4.0750 C.2     1  4SP1        0.2882
      8  O6        11.9850   -1.2450   -4.4800 O.2     1  4SP1       -0.4532
      9  N7        13.7540   -1.0890   -2.0530 N.pl3   1  4SP1       -0.2765
     10  C8        14.6440   -1.4840   -1.1450 C.2     1  4SP1        0.3020
     11  N9        15.0630   -2.7110   -1.4390 N.2     1  4SP1       -0.0153
     12  C10       11.8500   -1.2750   -5.9050 C.3     1  4SP1        0.2078
     13  C11       10.8520   -0.2030   -6.3520 C.3     1  4SP1        0.0438
     14  C12       10.7060   -0.1970   -7.8760 C.3     1  4SP1        0.0037
     15  C13        9.7080    0.8760   -8.3240 C.3     1  4SP1        0.0001
     16  C14        8.3410    0.6280   -7.6800 C.3     1  4SP1        0.0000
     17  C15        8.4720    0.6160   -6.1560 C.3     1  4SP1        0.0001
     18  C16        9.4810   -0.4510   -5.7150 C.3     1  4SP1        0.0037
     19  C17       13.0960   -5.6770   -6.1820 C.ar    1  4SP1        0.0533
     20  C18       12.2130   -4.7030   -6.6360 C.ar    1  4SP1        0.0160
     21  C19       11.5130   -4.8930   -7.8200 C.ar    1  4SP1        0.0176
     22  C20       11.6990   -6.0550   -8.5620 C.ar    1  4SP1        0.0892
     23  C21       12.5790   -7.0300   -8.1060 C.ar    1  4SP1        0.0176
     24  C22       13.2700   -6.8430   -6.9160 C.ar    1  4SP1        0.0160
     25  S23       10.8770   -6.2750  -10.0920 S.O2    1  4SP1       -0.0237
     26  O24       10.4280   -7.7020  -10.2050 O.2     1  4SP1       -0.1851
     27  O25       11.8470   -5.9980  -11.2020 O.2     1  4SP1       -0.1851
     28  N26        9.6010   -5.2630  -10.2000 N.4     1  4SP1        0.4312
     29  HAA        9.9080   -4.7110  -10.9770 H       1  4SP1       -0.0539
     30  HAB        9.5230   -4.5070   -9.5510 H       1  4SP1       -0.0539
     31  HAC        8.7940   -5.6560  -10.6420 H       1  4SP1       -0.0539
     32  HAD       14.4290   -6.2130   -4.7650 H       1  4SP1        0.1582
     33  HAE       13.2800   -0.2070   -2.0710 H       1  4SP1        0.1513
@<TRIPOS>BOND
     1    27    25    2
     2    29    28    1
     3    31    28    1
     4    26    25    2
     5    28    25    1
     6    28    30    1
     7    25    22    1
     8    22    23   ar
     9    22    21   ar
    10    15    14    1
    11    15    16    1
    12    23    24   ar
    13    14    13    1
    14    21    20   ar
    15    16    17    1
    16    24    19   ar
    17    20    19   ar
    18    13    12    1
    19    13    18    1
    20    19     3    1
    21    17    18    1
    22    12     8    1
    23     3    32    1
    24     3     2    1
    25     1     2    2
    26     1     7    2
    27     8     7    1
    28     2     4    1
    29     7     6    1
    30     4     5    2
    31     6     5    1
    32     6     9    1
    33     5    11    1
    34    33     9    1
    35     9    10    1
    36    11    10    2
