@<TRIPOS>MOLECULE
2z60_w_Lig.pdb
 29 32 0 0 0
SMALL
GASTEIGER

@<TRIPOS>ATOM
      1  C1         5.0370   -2.3810   -5.5080 C.3     1  P3Y1        0.2525
      2  N1         8.9700   -6.8620   -4.8720 N.ar    1  P3Y1       -0.2270
      3  O1         6.3810   -2.8760   -5.4680 O.3     1  P3Y1       -0.4714
      4  C2         8.3220   -7.0490   -6.0070 C.ar    1  P3Y1        0.1005
      5  C3         7.6970   -5.9890   -6.6560 C.ar    1  P3Y1        0.0208
      6  C4         7.7570   -4.7140   -6.0980 C.ar    1  P3Y1        0.0046
      7  C5         8.4460   -4.5560   -4.9040 C.ar    1  P3Y1        0.0355
      8  C6         9.0480   -5.6530   -4.3020 C.ar    1  P3Y1        0.1406
      9  C9         8.7410   -3.4680   -4.0930 C.ar    1  P3Y1        0.0228
     10  C10        9.4710   -3.9080   -3.0720 C.ar    1  P3Y1        0.0736
     11  N11        9.6540   -5.2200   -3.2000 N.ar    1  P3Y1       -0.3374
     12  C14        8.3880   -2.1590   -4.3950 C.ar    1  P3Y1        0.0355
     13  C15        7.2260   -1.8730   -5.1040 C.ar    1  P3Y1        0.1387
     14  C16        6.9140   -0.5580   -5.4240 C.ar    1  P3Y1        0.0369
     15  C17        7.7560    0.4760   -5.0350 C.ar    1  P3Y1        0.0031
     16  C18        8.9100    0.1960   -4.3160 C.ar    1  P3Y1        0.0002
     17  C19        9.2250   -1.1200   -3.9960 C.ar    1  P3Y1        0.0031
     18  C24        7.0040   -6.2030   -7.8430 C.ar    1  P3Y1        0.0208
     19  C25        6.0060   -5.3250   -8.2430 C.ar    1  P3Y1        0.0989
     20  N26        5.3760   -5.4990   -9.3900 N.ar    1  P3Y1       -0.2422
     21  C27        5.6720   -6.5030  -10.1940 C.ar    1  P3Y1        0.1034
     22  C28        6.6580   -7.4250   -9.8630 C.ar    1  P3Y1        0.0727
     23  C29        7.3330   -7.2740   -8.6630 C.ar    1  P3Y1        0.0077
     24  C33        6.9870   -8.5640  -10.8260 C.2     1  P3Y1        0.2506
     25  O34        6.8570   -8.4100  -12.0400 O.2     1  P3Y1       -0.2699
     26  N35        7.4340   -9.6980  -10.2870 N.am    1  P3Y1       -0.2725
     27  C41        7.5920   -9.8060   -8.8270 C.3     1  P3Y1        0.1152
     28  C45        7.7760  -10.8140  -11.1810 C.3     1  P3Y1        0.1152
     29  HAA       10.1690   -5.7970   -2.5600 H       1  P3Y1        0.1674
@<TRIPOS>BOND
     1    25    24    2
     2    28    26    1
     3    24    26   am
     4    24    22    1
     5    26    27    1
     6    21    22   ar
     7    21    20   ar
     8    22    23   ar
     9    20    19   ar
    10    23    18   ar
    11    19    18   ar
    12    18     5    1
    13     5     6   ar
    14     5     4   ar
    15     6     7   ar
    16     4     2   ar
    17     1     3    1
    18     3    13    1
    19    14    13   ar
    20    14    15   ar
    21    13    12   ar
    22    15    16   ar
    23     7     8   ar
    24     7     9   ar
    25     2     8   ar
    26    12     9    1
    27    12    17   ar
    28    16    17   ar
    29     8    11   ar
    30     9    10   ar
    31    11    10   ar
    32    11    29    1
