@<TRIPOS>MOLECULE
3f3w_w_Lig.pdb
 43 47 0 0 0
SMALL
GASTEIGER

@<TRIPOS>ATOM
      1  CAA       10.7530    8.1470   -0.7050 C.3     1  1BU1        0.0311
      2  CAB        8.7330    3.4590    6.5110 C.3     1  1BU1        0.0060
      3  CAC        6.7080    2.7170    5.2280 C.3     1  1BU1        0.0060
      4  CAD        8.7920    1.3180    5.2020 C.3     1  1BU1        0.0060
      5  CAG        9.7500    8.6930    2.9310 C.ar    1  1BU1        0.0012
      6  CAI       10.1600    8.9360    1.6250 C.ar    1  1BU1       -0.0042
      7  CAJ        9.4650    7.3930    3.3340 C.ar    1  1BU1        0.0192
      8  CAK        9.9350    0.4240   -1.1720 C.ar    1  1BU1        0.0160
      9  CAL       10.6200    1.6920   -3.0980 C.ar    1  1BU1        0.0160
     10  CAM        9.9640   -0.7400   -1.9300 C.ar    1  1BU1        0.0159
     11  CAN       10.6460    0.5270   -3.8540 C.ar    1  1BU1        0.0159
     12  CAO        9.8610   -6.3760   -5.9180 C.ar    1  1BU1        0.0156
     13  CAP        9.5940   -6.4680   -4.5550 C.ar    1  1BU1        0.0205
     14  CAQ       10.0020    6.5840    1.1400 C.ar    1  1BU1        0.0149
     15  CAR        9.0270    2.9630    2.8540 C.ar    1  1BU1        0.0509
     16  CAS       10.2270   -4.0050   -5.6950 C.ar    1  1BU1        0.0184
     17  CAZ        9.8180    2.7600    0.2200 C.2     1  1BU1        0.3092
     18  NAE       10.4240   -5.0670   -7.7890 N.pl3   1  1BU1       -0.3570
     19  NAV        8.9300    4.8270    3.9850 N.ar    1  1BU1       -0.1683
     20  NAW       10.1990    2.7770   -1.0560 N.am    1  1BU1       -0.2680
     21  NAX        9.7780    3.9400    0.8370 N.am    1  1BU1       -0.2533
     22  NAY       10.2890   -1.7890   -4.0280 N.pl3   1  1BU1       -0.2979
     23  OAF        9.4950    1.7220    0.7900 O.2     1  1BU1       -0.2521
     24  CBA       10.2860    7.8830    0.7280 C.ar    1  1BU1       -0.0204
     25  CBB       10.1790   -5.1460   -6.4850 C.ar    1  1BU1        0.0417
     26  CBC       10.2630    1.6450   -1.7530 C.ar    1  1BU1        0.0517
     27  CBD       10.3130   -0.6930   -3.2760 C.ar    1  1BU1        0.0494
     28  CBE        9.5900    6.3380    2.4410 C.ar    1  1BU1        0.0839
     29  CBF        8.7350    3.5120    4.0290 C.ar    1  1BU1        0.0810
     30  CBG        9.4010    4.0010    2.1120 C.ar    1  1BU1        0.1380
     31  CBL        8.2370    2.7410    5.2530 C.3     1  1BU1        0.0372
     32  NBK        9.3180    5.1030    2.8520 N.ar    1  1BU1       -0.2162
     33  N1         9.7140   -3.1220   -2.2130 N.ar    1  1BU1       -0.2089
     34  C2         9.4190   -4.3030   -1.7030 C.ar    1  1BU1        0.2000
     35  N3         9.3800   -5.3920   -2.4540 N.ar    1  1BU1       -0.2239
     36  C4         9.6410   -5.3260   -3.7650 C.ar    1  1BU1        0.0858
     37  C5         9.9590   -4.0970   -4.3330 C.ar    1  1BU1        0.0506
     38  C6         9.9960   -2.9790   -3.5140 C.ar    1  1BU1        0.1353
     39  HAA       10.4410    3.6320   -1.5100 H       1  1BU1        0.1564
     40  HAB       10.0390    4.7800    0.3670 H       1  1BU1        0.1578
     41  HAC       10.5020   -1.7160   -5.0020 H       1  1BU1        0.1536
     42  HAD       10.6480   -4.1880   -8.2070 H       1  1BU1        0.1424
     43  HAE       10.3870   -5.8940   -8.3540 H       1  1BU1        0.1424
@<TRIPOS>BOND
     1    43    18    1
     2    42    18    1
     3    18    25    1
     4    25    12   ar
     5    25    16   ar
     6    12    13   ar
     7    16    37   ar
     8    41    22    1
     9    13    36   ar
    10    37    36   ar
    11    37    38   ar
    12    22    38    1
    13    22    27    1
    14    11    27   ar
    15    11     9   ar
    16    36    35   ar
    17    38    33   ar
    18    27    10   ar
    19     9    26   ar
    20    35    34   ar
    21    33    34   ar
    22    10     8   ar
    23    26     8   ar
    24    26    20    1
    25    39    20    1
    26    20    17   am
    27     1    24    1
    28    17    23    2
    29    17    21   am
    30    40    21    1
    31    24    14   ar
    32    24     6   ar
    33    21    30    1
    34    14    28   ar
    35     6     5   ar
    36    30    32   ar
    37    30    15   ar
    38    28    32    1
    39    28     7   ar
    40    32    19   ar
    41    15    29   ar
    42     5     7   ar
    43    19    29   ar
    44    29    31    1
    45     4    31    1
    46     3    31    1
    47    31     2    1
