@<TRIPOS>MOLECULE
3qri_w_Lig.pdb
 44 48 0 0 0
SMALL
GASTEIGER

@<TRIPOS>ATOM
      1  C1         6.3500   -5.4150   -2.9780 C.ar    1  9191        0.0843
      2  C2         5.9830   -6.2740   -4.0060 C.ar    1  9191        0.0207
      3  C3         6.1800   -7.6430   -3.8770 C.ar    1  9191        0.0206
      4  C4         6.7460   -8.1580   -2.7140 C.ar    1  9191        0.0814
      5  C5         7.1160   -7.2950   -1.6870 C.ar    1  9191        0.0192
      6  C6         6.9230   -5.9260   -1.8190 C.ar    1  9191        0.0207
      7  C9         7.4350  -10.0070   -1.4910 C.ar    1  9191        0.0988
      8  N10        6.9150   -9.4820   -2.5880 N.ar    1  9191       -0.2438
      9  C13        7.6650   -7.8210   -0.5230 C.ar    1  9191        0.0031
     10  C14        7.8260   -9.1970   -0.4280 C.ar    1  9191        0.0207
     11  C22        9.0290    3.9100    3.9990 C.ar    1  9191        0.1021
     12  N23        8.6250    4.4270    5.1450 N.ar    1  9191       -0.2391
     13  C24        8.4690    3.6670    6.2370 C.ar    1  9191        0.1375
     14  C25        8.7330    2.3040    6.1850 C.ar    1  9191        0.0612
     15  C26        9.1630    1.7370    4.9940 C.ar    1  9191        0.1485
     16  C27        9.3110    2.5520    3.8820 C.ar    1  9191        0.0582
     17  C34        8.0250   -0.6210    1.7880 C.ar    1  9191        0.0201
     18  C35        8.2850    0.1480    2.9190 C.ar    1  9191        0.0389
     19  C36        9.2880   -0.2320    3.8060 C.ar    1  9191        0.1476
     20  C37       10.0410   -1.3740    3.5510 C.ar    1  9191        0.0684
     21  C38        9.7770   -2.1440    2.4250 C.ar    1  9191        0.1565
     22  C39        8.7630   -1.7780    1.5470 C.ar    1  9191        0.0795
     23  C46        5.1540   -2.3560   -3.6330 C.ar    1  9191        0.0810
     24  C47        5.7920   -2.0510   -2.5050 C.ar    1  9191        0.0509
     25  C48        6.3780   -3.1940   -2.1670 C.ar    1  9191        0.1380
     26  N49        6.0640   -4.1190   -3.0720 N.ar    1  9191       -0.2162
     27  N50        5.3530   -3.6320   -3.9510 N.ar    1  9191       -0.1683
     28  N56        7.2800   -3.3410   -1.2000 N.am    1  9191       -0.2533
     29  C58        7.4990   -2.3700   -0.3170 C.2     1  9191        0.3093
     30  N60        8.4430   -2.6340    0.5820 N.am    1  9191       -0.2662
     31  O63        6.8730   -1.3130   -0.3280 O.2     1  9191       -0.2521
     32  O65        9.5010    0.4200    4.9820 O.3     1  9191       -0.4533
     33  C70        8.0320    4.2860    7.5680 C.2     1  9191        0.2637
     34  O72        7.6630    3.5750    8.5010 O.2     1  9191       -0.2685
     35  N74        8.0770    5.6140    7.6240 N.am    1  9191       -0.2979
     36  C76        7.6630    6.2340    8.8930 C.3     1  9191        0.1110
     37  C79        4.3250   -1.3780   -4.4670 C.3     1  9191        0.0372
     38  C81        5.0830   -1.0700   -5.7620 C.3     1  9191        0.0060
     39  C83        4.1130   -0.0950   -3.6590 C.3     1  9191        0.0060
     40  C85        2.9740   -2.0260   -4.7850 C.3     1  9191        0.0060
     41  F68       10.5100   -3.2480    2.1800 F       1  9191       -0.2028
     42  HAA        7.7900   -4.1990   -1.1530 H       1  9191        0.1578
     43  HAB        8.9350   -3.5040    0.5450 H       1  9191        0.1565
     44  HAC        8.3730    6.1880    6.8600 H       1  9191        0.1498
@<TRIPOS>BOND
     1    38    37    1
     2    40    37    1
     3    37    39    1
     4    37    23    1
     5     2     3   ar
     6     2     1   ar
     7    27    23   ar
     8    27    26   ar
     9     3     4   ar
    10    23    24   ar
    11    26     1    1
    12    26    25   ar
    13     1     6   ar
    14     4     8   ar
    15     4     5   ar
    16     8     7   ar
    17    24    25   ar
    18    25    28    1
    19     6     5   ar
    20     5     9   ar
    21     7    10   ar
    22    28    42    1
    23    28    29   am
    24     9    10   ar
    25    31    29    2
    26    29    30   am
    27    43    30    1
    28    30    22    1
    29    22    17   ar
    30    22    21   ar
    31    17    18   ar
    32    41    21    1
    33    21    20   ar
    34    18    19   ar
    35    20    19   ar
    36    19    32    1
    37    16    11   ar
    38    16    15   ar
    39    11    12   ar
    40    32    15    1
    41    15    14   ar
    42    12    13   ar
    43    14    13   ar
    44    13    33    1
    45    44    35    1
    46    33    35   am
    47    33    34    2
    48    35    36    1
