@<TRIPOS>MOLECULE
3w2r_w_Lig.pdb
 44 48 0 0 0
SMALL
GASTEIGER

@<TRIPOS>ATOM
      1  CL1       10.4260    1.4830   -0.9770 C.3     1  W2R1        0.0343
      2  C1         7.2950    4.0560    0.5570 C.ar    1  W2R1        0.0044
      3  C2         7.1840    5.4340    0.6910 C.ar    1  W2R1        0.0149
      4  C3         7.5100    1.4360   -4.4150 C.ar    1  W2R1        0.0178
      5  C4         8.0190    3.5160   -0.5010 C.ar    1  W2R1        0.0376
      6  C5         7.9930    2.6500   -3.9300 C.ar    1  W2R1        0.0384
      7  C6         6.9860   -5.4360   -4.3220 C.ar    1  W2R1        0.0394
      8  C7         8.5200    5.7350   -1.2860 C.ar    1  W2R1        0.0522
      9  C8         8.7970    0.2600   -2.7600 C.ar    1  W2R1        0.0134
     10  C9         6.2870   -4.9000   -5.3200 C.ar    1  W2R1        0.0777
     11  C10        8.8970   -3.2970   -2.1430 C.ar    1  W2R1        0.2001
     12  C11        7.5900   -4.4600   -3.6490 C.ar    1  W2R1        0.1030
     13  C12        7.2410   -3.2600   -4.2560 C.ar    1  W2R1        0.1101
     14  C13        7.7910    6.2770   -0.2300 C.ar    1  W2R1        0.0546
     15  C14        7.9110    0.2390   -3.8280 C.ar    1  W2R1        0.0493
     16  C15        8.6360    4.3580   -1.4190 C.ar    1  W2R1        0.1465
     17  C16        8.8930    2.6620   -2.8670 C.ar    1  W2R1        0.1413
     18  C17        9.2960    1.4640   -2.2830 C.ar    1  W2R1        0.0139
     19  C18        7.7600   -2.0750   -3.7500 C.ar    1  W2R1        0.1513
     20  C19        8.2590    8.4190   -0.9600 C.2     1  W2R1        0.3044
     21  C20        9.6700   13.4850   -2.0810 C.3     1  W2R1        0.0001
     22  C21        8.3510   12.9920   -2.6810 C.3     1  W2R1        0.0017
     23  C22       10.6390   12.3170   -1.8960 C.3     1  W2R1        0.0017
     24  C23        7.7360   11.9070   -1.7930 C.3     1  W2R1        0.0196
     25  C24       10.0120   11.2350   -1.0150 C.3     1  W2R1        0.0196
     26  C25        8.7040   10.7340   -1.6230 C.3     1  W2R1        0.0730
     27  C26        5.9090   -2.6360   -6.2650 C.3     1  W2R1        0.1382
     28  C27        4.5560   -2.0960   -5.7990 C.3     1  W2R1        0.1667
     29  C28        3.0600    0.3080   -5.2440 C.3     1  W2R1        0.1692
     30  C29        3.4670   -0.7480   -4.2160 C.3     1  W2R1        0.1739
     31  N30        8.4150   -4.4400   -2.5950 N.ar    1  W2R1       -0.2224
     32  N31        8.5870   -2.1410   -2.6940 N.ar    1  W2R1       -0.2074
     33  N32        6.4510   -3.5810   -5.2770 N.ar    1  W2R1       -0.3200
     34  N33        7.4260   -0.9070   -4.2970 N.pl3   1  W2R1       -0.2967
     35  N34        7.6890    7.5970   -0.0830 N.am    1  W2R1       -0.2682
     36  N35        8.1100    9.7210   -0.7370 N.am    1  W2R1       -0.2903
     37  O36        8.8650    8.0040   -1.9490 O.2     1  W2R1       -0.2525
     38  O37        2.9040   -0.3010   -6.5300 O.3     1  W2R1       -0.3794
     39  O38        9.3970    3.8430   -2.4210 O.3     1  W2R1       -0.4538
     40  O39        4.7150   -1.3510   -4.5830 O.3     1  W2R1       -0.3490
     41  HAA        3.8030   -0.3850   -6.9680 H       1  W2R1        0.2105
     42  HAB        6.7970   -0.8920   -5.0760 H       1  W2R1        0.1537
     43  HAC        7.1710    7.9520    0.6980 H       1  W2R1        0.1564
     44  HAD        7.5930   10.0850    0.0370 H       1  W2R1        0.1509
@<TRIPOS>BOND
     1    41    38    1
     2    38    29    1
     3    27    28    1
     4    27    33    1
     5    28    40    1
     6    10    33   ar
     7    10     7   ar
     8    33    13   ar
     9    29    30    1
    10    42    34    1
    11    40    30    1
    12     4     6   ar
    13     4    15   ar
    14     7    12   ar
    15    34    15    1
    16    34    19    1
    17    13    19   ar
    18    13    12   ar
    19     6    17   ar
    20    15     9   ar
    21    19    32   ar
    22    12    31   ar
    23    17    39    1
    24    17    18   ar
    25     9    18   ar
    26    32    11   ar
    27    22    21    1
    28    22    24    1
    29    31    11   ar
    30    39    16    1
    31    18     1    1
    32    21    23    1
    33    37    20    2
    34    23    25    1
    35    24    26    1
    36    26    25    1
    37    26    36    1
    38    16     8   ar
    39    16     5   ar
    40     8    14   ar
    41    20    36   am
    42    20    35   am
    43    36    44    1
    44     5     2   ar
    45    14    35    1
    46    14     3   ar
    47    35    43    1
    48     2     3   ar
