@<TRIPOS>MOLECULE
4clj_w_Lig.pdb
 32 35 0 0 0
SMALL
GASTEIGER

@<TRIPOS>ATOM
      1  C1         8.4340   -6.9500   -2.0840 C.ar    1  5P81        0.1698
      2  C2         8.9930   -7.6050   -0.9920 C.ar    1  5P81        0.1597
      3  N3         8.8420   -8.9290   -0.8380 N.ar    1  5P81       -0.2265
      4  C4         8.1740   -9.6520   -1.7180 C.ar    1  5P81        0.1006
      5  C5         7.5910   -9.0600   -2.8330 C.ar    1  5P81        0.0256
      6  C6         7.7200   -7.6900   -3.0190 C.ar    1  5P81        0.0414
      7  O7         8.6120   -5.6110   -2.2290 O.3     1  5P81       -0.4720
      8  C8         8.5640   -5.2200   -3.6050 C.3     1  5P81        0.1886
      9  C9         9.5350   -4.0660   -3.8590 C.3     1  5P81        0.0523
     10  C10        7.1380   -4.7690   -3.9380 C.ar    1  5P81        0.0238
     11  C11        6.5200   -5.2010   -5.1060 C.ar    1  5P81        0.0531
     12  C12        5.2200   -4.7960   -5.3980 C.ar    1  5P81        0.0066
     13  C13        4.5390   -3.9610   -4.5190 C.ar    1  5P81        0.0298
     14  C14        5.1610   -3.5210   -3.3540 C.ar    1  5P81        0.1399
     15  C15        6.4600   -3.9240   -3.0630 C.ar    1  5P81        0.0290
     16  N17        9.6830   -6.9130   -0.0890 N.pl3   1  5P81       -0.3402
     17  C18        6.9160   -9.8560   -3.7540 C.ar    1  5P81        0.0456
     18  C19        6.7890  -11.2260   -3.9160 C.ar    1  5P81        0.1470
     19  N20        5.9950  -11.4220   -4.9650 N.ar    1  5P81       -0.2394
     20  N21        5.6310  -10.3560   -5.4610 N.ar    1  5P81       -0.1713
     21  C22        6.1480   -9.3310   -4.7840 C.ar    1  5P81        0.1008
     22  C23        7.4200  -12.1980   -3.0720 C.1     1  5P81        0.1194
     23  N24        7.9210  -12.9780   -2.4040 N.1     1  5P81       -0.1893
     24  C25        5.5940  -12.7510   -5.4650 C.3     1  5P81        0.1545
     25  N26        6.9430   -7.3860   -6.0350 N.am    1  5P81       -0.2686
     26  C27        7.2790   -6.0990   -6.0820 C.2     1  5P81        0.2492
     27  C28        5.9170   -7.8520   -5.0950 C.3     1  5P81        0.1414
     28  C29        7.6600   -8.2660   -6.9710 C.3     1  5P81        0.1156
     29  O30        8.1350   -5.6320   -6.8370 O.2     1  5P81       -0.2699
     30  F16        4.5100   -2.7040   -2.5040 F       1  5P81       -0.2042
     31  HAA        9.8030   -5.9270   -0.1960 H       1  5P81        0.1438
     32  HAB       10.0850   -7.3850    0.6980 H       1  5P81        0.1438
@<TRIPOS>BOND
     1    28    25    1
     2    29    26    2
     3    26    25   am
     4    26    11    1
     5    25    27    1
     6    24    19    1
     7    20    19   ar
     8    20    21   ar
     9    12    11   ar
    10    12    13   ar
    11    11    10   ar
    12    27    21    1
    13    19    18   ar
    14    21    17   ar
    15    13    14   ar
    16    10     8    1
    17    10    15   ar
    18    18    17   ar
    19    18    22    1
    20     9     8    1
    21    17     5    1
    22     8     7    1
    23    14    15   ar
    24    14    30    1
    25    22    23    3
    26     6     5   ar
    27     6     1   ar
    28     5     4   ar
    29     7     1    1
    30     1     2   ar
    31     4     3   ar
    32     2     3   ar
    33     2    16    1
    34    31    16    1
    35    16    32    1
