@<TRIPOS>MOLECULE
4eor_w_Lig.pdb
 33 36 0 0 0
SMALL
GASTEIGER

@<TRIPOS>ATOM
      1  N1       -12.6900   -2.9830    4.4540 N.2     1  4SP1       -0.3140
      2  C2       -13.5440   -3.8710    3.9220 C.cat   1  4SP1        0.3917
      3  N2       -13.7650   -5.0420    4.5130 N.pl3   1  4SP1       -0.2505
      4  N3       -14.1960   -3.6000    2.7780 N.2     1  4SP1        0.0125
      5  C4       -14.0010   -2.4390    2.1430 C.2     1  4SP1        0.3854
      6  C5       -13.1190   -1.5080    2.6720 C.3     1  4SP1        0.2754
      7  C6       -12.4600   -1.8070    3.8580 C.2     1  4SP1        0.2882
      8  O6       -11.5990   -0.9060    4.4040 O.2     1  4SP1       -0.4532
      9  N7       -13.1080   -0.4630    1.8500 N.pl3   1  4SP1       -0.2765
     10  C8       -13.9390   -0.7230    0.8440 C.2     1  4SP1        0.3020
     11  N9       -14.4880   -1.9200    1.0170 N.2     1  4SP1       -0.0153
     12  C10      -11.5800   -1.0480    5.8330 C.3     1  4SP1        0.2078
     13  C11      -10.7130    0.0590    6.4340 C.3     1  4SP1        0.0438
     14  C12       -9.2960   -0.0030    5.8620 C.3     1  4SP1        0.0037
     15  C13       -8.4180    1.1020    6.4610 C.3     1  4SP1        0.0001
     16  C14       -8.3690    0.9740    7.9880 C.3     1  4SP1        0.0000
     17  C15       -9.7850    1.0310    8.5660 C.3     1  4SP1        0.0001
     18  C16      -10.6540   -0.0700    7.9560 C.3     1  4SP1        0.0037
     19  C17      -13.1490   -5.3900    5.6390 C.ar    1  4SP1        0.0533
     20  C18      -12.2380   -4.5400    6.2580 C.ar    1  4SP1        0.0160
     21  C19      -11.6230   -4.9200    7.4450 C.ar    1  4SP1        0.0176
     22  C20      -11.9180   -6.1520    8.0200 C.ar    1  4SP1        0.0892
     23  C21      -12.8250   -7.0020    7.4010 C.ar    1  4SP1        0.0176
     24  C22      -13.4380   -6.6200    6.2140 C.ar    1  4SP1        0.0160
     25  S23      -11.1920   -6.6190    9.5400 S.O2    1  4SP1       -0.0237
     26  O24      -10.5650   -7.9750    9.4010 O.2     1  4SP1       -0.1851
     27  O25      -12.2630   -6.7100   10.5860 O.2     1  4SP1       -0.1851
     28  N26      -10.0690   -5.5160    9.9760 N.4     1  4SP1        0.4312
     29  HAA      -10.5020   -5.1760   10.8100 H       1  4SP1       -0.0539
     30  HAB      -10.0390   -4.6380    9.5000 H       1  4SP1       -0.0539
     31  HAC       -9.2510   -5.9020   10.4080 H       1  4SP1       -0.0539
     32  HAD      -14.4150   -5.6790    4.0970 H       1  4SP1        0.1582
     33  HAE      -12.5620    0.3680    1.9610 H       1  4SP1        0.1513
@<TRIPOS>BOND
     1    10    11    2
     2    10     9    1
     3    11     5    1
     4     9    33    1
     5     9     6    1
     6     5     6    1
     7     5     4    2
     8     6     7    1
     9     4     2    1
    10     7     8    1
    11     7     1    2
    12     2     1    2
    13     2     3    1
    14    32     3    1
    15     8    12    1
    16     3    19    1
    17    19    24   ar
    18    19    20   ar
    19    12    13    1
    20    14    13    1
    21    14    15    1
    22    24    23   ar
    23    20    21   ar
    24    13    18    1
    25    15    16    1
    26    23    22   ar
    27    21    22   ar
    28    18    17    1
    29    16    17    1
    30    22    25    1
    31    26    25    2
    32    30    28    1
    33    25    28    1
    34    25    27    2
    35    28    31    1
    36    28    29    1
