@<TRIPOS>MOLECULE
4mxx_w_Lig.pdb
 40 43 0 0 0
SMALL
GASTEIGER

@<TRIPOS>ATOM
      1  CAA        7.9880    6.9170    8.5980 C.3     1  DB81        0.2521
      2  CAC        9.0450   11.5290    8.5870 C.3     1  DB81       -0.0737
      3  CAG        9.8900    3.7060    1.5720 C.1     1  DB81        0.0752
      4  CAH       10.5520    6.1740    1.9870 C.3     1  DB81        0.0855
      5  CAI       10.1110    0.3100    2.1110 C.ar    1  DB81       -0.0043
      6  CAJ       12.0070    2.5560    3.1510 C.ar    1  DB81        0.0505
      7  CAK        9.9620    8.2110    4.8140 C.3     1  DB81        0.0825
      8  CAL        9.3440    5.4750    6.0920 C.3     1  DB81        0.0698
      9  CAM        9.8780   11.4990    7.3040 C.3     1  DB81        0.0246
     10  CAN        9.5410   10.2820    6.4410 C.3     1  DB81        0.2029
     11  CAO        6.9560   14.9110   10.6700 C.3     1  DB81       -0.1009
     12  CAP        7.1610   11.7380    9.6530 C.3     1  DB81       -0.1008
     13  CAQ        7.7820   12.9810    7.5640 C.3     1  DB81       -0.1008
     14  CAR        6.1180   12.8470    9.7750 C.3     1  DB81       -0.1009
     15  CAS        7.9260   14.0570    8.6460 C.3     1  DB81       -0.1009
     16  CAX       12.4770    1.3040    2.4050 C.ar    1  DB81        0.1359
     17  CAY       11.6280    0.3210    1.9060 C.ar    1  DB81        0.0119
     18  CAZ        9.7340    1.3310    3.1860 C.ar    1  DB81       -0.0089
     19  NAD        9.6600    2.8560    0.8520 N.1     1  DB81       -0.1958
     20  NAT       11.1420    6.9060    3.1170 N.3     1  DB81       -0.2972
     21  NAU       10.0080    3.3170    4.3670 N.pl3   1  DB81       -0.3332
     22  OAV        9.3580    6.7080    8.2480 O.2     1  DB81       -0.4730
     23  OAW        9.9060    9.0830    7.1470 O.2     1  DB81       -0.4771
     24  CBA       10.1790    4.7760    2.4790 C.3     1  DB81        0.1248
     25  CBB       10.5420    2.3950    3.5720 C.ar    1  DB81        0.0436
     26  CBC        9.4970    6.7720    6.8940 C.2     1  DB81        0.1458
     27  CBD        9.7760    8.0090    6.3200 C.2     1  DB81        0.1468
     28  CBE       10.0710    4.5400    3.8440 C.3     1  DB81        0.0862
     29  CBF       10.3530    6.8690    4.1890 C.3     1  DB81        0.0637
     30  CBG        9.9360    5.6360    4.6870 C.3     1  DB81        0.0414
     31  NBH        7.6200   11.6980    8.2590 N.4     1  DB81        0.3842
     32  NBI        6.6870   14.1620    9.4340 N.4     1  DB81        0.3827
     33  CL1       12.3280   -0.9610    0.9820 C.3     1  DB81        0.0342
     34  CL2        8.1890    1.1720    3.9510 C.3     1  DB81        0.0323
     35  C01       14.4560    2.4110    2.1190 C.3     1  DB81        0.2525
     36  O02       13.8150    1.1370    2.2170 O.3     1  DB81       -0.4717
     37  HAA        7.5420   10.8320    7.7640 H       1  DB81       -0.0799
     38  HAB        6.0070   14.6730    8.9080 H       1  DB81       -0.0800
     39  HAC       11.3110    7.8570    2.8580 H       1  DB81        0.1232
     40  HAD       10.4810    3.3080    5.2490 H       1  DB81        0.1468
@<TRIPOS>BOND
     1    19     3    3
     2    33    17    1
     3     3    24    1
     4    17     5   ar
     5    17    16   ar
     6     4    24    1
     7     4    20    1
     8     5    18   ar
     9    35    36    1
    10    36    16    1
    11    16     6   ar
    12    24    28    1
    13    39    20    1
    14    20    29    1
    15     6    25   ar
    16    18    25   ar
    17    18    34    1
    18    25    21    1
    19    28    21    1
    20    28    30    1
    21    29    30    1
    22    29     7    1
    23    21    40    1
    24    30     8    1
    25     7    27    1
    26     8    26    1
    27    27    26    2
    28    27    23    1
    29    10    23    1
    30    10     9    1
    31    26    22    1
    32     9     2    1
    33    13    31    1
    34    13    15    1
    35    37    31    1
    36    22     1    1
    37    31     2    1
    38    31    12    1
    39    15    32    1
    40    38    32    1
    41    32    14    1
    42    32    11    1
    43    12    14    1
