@<TRIPOS>MOLECULE
4wa9_w_Lig.pdb
 30 33 0 0 0
SMALL
GASTEIGER

@<TRIPOS>ATOM
      1  C01       11.9910   -4.3920   -8.5480 C.ar    1  AXI1        0.0191
      2  C02       12.3950   -4.6870   -7.2480 C.ar    1  AXI1        0.0814
      3  N03       12.7070   -5.9470   -6.9020 N.ar    1  AXI1       -0.2438
      4  C04       12.6440   -6.9380   -7.7720 C.ar    1  AXI1        0.0988
      5  C05       12.2490   -6.7120   -9.0850 C.ar    1  AXI1        0.0207
      6  C06       11.9150   -5.4210   -9.4840 C.ar    1  AXI1        0.0031
      7  C07       12.2110    1.1100   -4.3070 C.ar    1  AXI1        0.0310
      8  C08       11.9980    0.3990   -5.4860 C.ar    1  AXI1        0.0066
      9  C09       12.2170   -0.9700   -5.5240 C.ar    1  AXI1        0.0035
     10  C10       12.6480   -1.6210   -4.3770 C.ar    1  AXI1        0.0364
     11  C11       12.8540   -0.9190   -3.1980 C.ar    1  AXI1        0.1026
     12  C12       12.6380    0.4520   -3.1610 C.ar    1  AXI1        0.0274
     13  C13       12.9650   -2.9370   -4.0580 C.ar    1  AXI1        0.0754
     14  N14       13.3240   -2.9330   -2.7750 N.ar    1  AXI1       -0.2757
     15  N15       13.2640   -1.8020   -2.2890 N.ar    1  AXI1       -0.1726
     16  C16       12.8820   -3.9520   -5.0050 C.2     1  AXI1        0.0200
     17  C17       12.4760   -3.6680   -6.3040 C.2     1  AXI1        0.0206
     18  C18       10.1820    2.8690   -4.3670 C.ar    1  AXI1        0.0338
     19  C19        9.4500    1.6840   -4.3620 C.ar    1  AXI1        0.0066
     20  C20        8.0640    1.7230   -4.4310 C.ar    1  AXI1        0.0005
     21  C21        7.4040    2.9450   -4.5070 C.ar    1  AXI1        0.0002
     22  C22        8.1320    4.1290   -4.5160 C.ar    1  AXI1        0.0050
     23  C23        9.5210    4.0910   -4.4440 C.ar    1  AXI1        0.0593
     24  S24       11.9290    2.8350   -4.2670 S.3     1  AXI1       -0.0867
     25  C80       10.3260    5.3930   -4.4410 C.2     1  AXI1        0.2464
     26  O81       11.5460    5.3880   -4.2700 O.2     1  AXI1       -0.2701
     27  N82        9.6040    6.4940   -4.6260 N.am    1  AXI1       -0.2991
     28  C88       10.3250    7.7750   -4.6290 C.3     1  AXI1        0.1109
     29  HAA       13.6170   -3.7140   -2.2270 H       1  AXI1        0.1889
     30  HAB        8.6120    6.4740   -4.7620 H       1  AXI1        0.1498
@<TRIPOS>BOND
     1     6     5   ar
     2     6     1   ar
     3     5     4   ar
     4     1     2   ar
     5     4     3   ar
     6     2     3   ar
     7     2    17    1
     8    17    16    2
     9     9     8   ar
    10     9    10   ar
    11     8     7   ar
    12    16    13    1
    13    30    27    1
    14    28    27    1
    15    27    25   am
    16    22    21   ar
    17    22    23   ar
    18    21    20   ar
    19    23    25    1
    20    23    18   ar
    21    25    26    2
    22    20    19   ar
    23    10    13   ar
    24    10    11   ar
    25    18    19   ar
    26    18    24    1
    27     7    24    1
    28     7    12   ar
    29    13    14   ar
    30    11    12   ar
    31    11    15   ar
    32    14    15   ar
    33    14    29    1
