@<TRIPOS>MOLECULE
5am6_w_Lig.pdb
 34 38 0 0 0
SMALL
GASTEIGER

@<TRIPOS>ATOM
      1  C1        -4.0770  -11.3670   14.2900 C.3     1  38O1       -0.1005
      2  N2        -5.0960  -10.7790   13.4090 N.4     1  38O1        0.3878
      3  C3        -4.5400  -10.6470   12.0530 C.3     1  38O1       -0.0556
      4  C4        -5.4020   -9.7200   11.1980 C.3     1  38O1        0.0680
      5  N5        -5.3610   -8.3820   11.8300 N.pl3   1  38O1       -0.3118
      6  C6        -4.9280   -8.3050   13.2420 C.3     1  38O1        0.0680
      7  C7        -5.5410   -9.4960   13.9780 C.3     1  38O1       -0.0556
      8  C8        -5.7250   -7.2330   11.1150 C.ar    1  38O1        0.0493
      9  C9        -6.1210   -7.3420    9.7880 C.ar    1  38O1        0.0330
     10  C10       -6.4700   -6.1980    9.0810 C.ar    1  38O1        0.0768
     11  N11       -6.8700   -6.0010    7.8270 N.ar    1  38O1       -0.3372
     12  C12       -7.0570   -4.6950    7.6480 C.ar    1  38O1        0.1463
     13  N13       -6.7880   -4.0550    8.7850 N.ar    1  38O1       -0.2268
     14  C14       -6.4190   -4.9530    9.6940 C.ar    1  38O1        0.0985
     15  C15       -6.0230   -4.8470   11.0190 C.ar    1  38O1        0.0219
     16  C16       -5.6750   -5.9870   11.7300 C.ar    1  38O1        0.0162
     17  C17       -7.4540   -4.1000    6.4530 C.ar    1  38O1        0.1027
     18  C18       -7.3030   -2.7320    6.2590 C.ar    1  38O1        0.0526
     19  N19       -6.7390   -2.0360    7.2440 N.pl3   1  38O1       -0.3567
     20  C20       -7.7140   -2.1410    5.0670 C.ar    1  38O1        0.0562
     21  C21       -7.5610   -0.7800    4.8250 C.ar    1  38O1        0.1426
     22  C23       -7.9770   -0.2270    3.6200 C.ar    1  38O1        0.0298
     23  C24       -8.5410   -1.0280    2.6340 C.ar    1  38O1        0.0038
     24  C25       -8.6920   -2.3870    2.8670 C.ar    1  38O1        0.0172
     25  C26       -8.2820   -2.9350    4.0770 C.ar    1  38O1        0.0622
     26  N27       -8.4340   -4.3150    4.2650 N.ar    1  38O1       -0.3208
     27  C28       -8.0190   -4.8990    5.4700 C.ar    1  38O1        0.2617
     28  O29       -8.1370   -6.1090    5.6480 O.2     1  38O1       -0.2671
     29  F22       -7.0200    0.0510    5.7400 F       1  38O1       -0.2041
     30  HAA       -5.8730  -11.4050   13.3650 H       1  38O1       -0.0797
     31  HAB       -7.0020   -6.7100    7.1340 H       1  38O1        0.1674
     32  HAC       -8.8490   -4.8750    3.5490 H       1  38O1        0.1689
     33  HAD       -6.4480   -2.5080    8.0780 H       1  38O1        0.1424
     34  HAE       -6.5990   -1.0470    7.1760 H       1  38O1        0.1424
@<TRIPOS>BOND
     1    23    24   ar
     2    23    22   ar
     3    24    25   ar
     4    32    26    1
     5    22    21   ar
     6    25    26   ar
     7    25    20   ar
     8    26    27   ar
     9    21    20   ar
    10    21    29    1
    11    20    18   ar
    12    27    28    2
    13    27    17   ar
    14    18    17   ar
    15    18    19    1
    16    17    12    1
    17    31    11    1
    18    34    19    1
    19    19    33    1
    20    12    11   ar
    21    12    13   ar
    22    11    10   ar
    23    13    14   ar
    24    10    14   ar
    25    10     9   ar
    26    14    15   ar
    27     9     8   ar
    28    15    16   ar
    29     8    16   ar
    30     8     5    1
    31     4     5    1
    32     4     3    1
    33     5     6    1
    34     3     2    1
    35     6     7    1
    36    30     2    1
    37     2     7    1
    38     2     1    1
