@<TRIPOS>MOLECULE
5am7_w_Lig.pdb
 34 38 0 0 0
SMALL
GASTEIGER

@<TRIPOS>ATOM
      1  C1        -5.5620  -11.3110   14.4400 C.3     1  38O1       -0.1005
      2  N2        -5.1310  -10.3410   13.4250 N.4     1  38O1        0.3878
      3  C3        -5.1410   -8.9850   13.9900 C.3     1  38O1       -0.0556
      4  C4        -4.5300   -8.0070   12.9860 C.3     1  38O1        0.0680
      5  N5        -5.2030   -8.1550   11.6780 N.pl3   1  38O1       -0.3118
      6  C6        -5.4660   -9.5070   11.1430 C.3     1  38O1        0.0680
      7  C7        -6.0280  -10.3920   12.2620 C.3     1  38O1       -0.0556
      8  C8        -5.5600   -7.0240   10.9340 C.ar    1  38O1        0.0493
      9  C9        -6.1550   -7.1700    9.6850 C.ar    1  38O1        0.0330
     10  C10       -6.4630   -6.0450    8.9270 C.ar    1  38O1        0.0768
     11  N11       -6.9960   -5.8860    7.7210 N.ar    1  38O1       -0.3372
     12  C12       -7.0470   -4.5830    7.4510 C.ar    1  38O1        0.1463
     13  N13       -6.5520   -3.9060    8.4840 N.ar    1  38O1       -0.2268
     14  C14       -6.1770   -4.7770    9.4160 C.ar    1  38O1        0.0985
     15  C15       -5.5870   -4.6270   10.6680 C.ar    1  38O1        0.0219
     16  C16       -5.2820   -5.7530   11.4240 C.ar    1  38O1        0.0162
     17  C17       -7.5230   -4.0400    6.2660 C.ar    1  38O1        0.1027
     18  C18       -7.3290   -2.6930    5.9710 C.ar    1  38O1        0.0526
     19  N19       -6.6610   -1.9610    6.8610 N.pl3   1  38O1       -0.3567
     20  C20       -7.8080   -2.1590    4.7760 C.ar    1  38O1        0.0562
     21  C21       -7.6300   -0.8150    4.4400 C.ar    1  38O1        0.1426
     22  C23       -8.1130   -0.3200    3.2360 C.ar    1  38O1        0.0298
     23  C24       -8.7860   -1.1540    2.3460 C.ar    1  38O1        0.0038
     24  C25       -8.9670   -2.4900    2.6780 C.ar    1  38O1        0.0172
     25  C26       -8.4820   -2.9840    3.8820 C.ar    1  38O1        0.0622
     26  N27       -8.6820   -4.3380    4.1730 N.ar    1  38O1       -0.3208
     27  C28       -8.1960   -4.8660    5.3740 C.ar    1  38O1        0.2617
     28  O29       -8.3660   -6.0520    5.6460 O.2     1  38O1       -0.2671
     29  F22       -6.9860    0.0450    5.2540 F       1  38O1       -0.2041
     30  HAA       -4.1960  -10.5610   13.1460 H       1  38O1       -0.0797
     31  HAB       -7.3020   -6.6200    7.1170 H       1  38O1        0.1674
     32  HAC       -9.1680   -4.9240    3.5290 H       1  38O1        0.1689
     33  HAD       -6.3280   -2.3940    7.6970 H       1  38O1        0.1424
     34  HAE       -6.4820   -0.9910    6.7160 H       1  38O1        0.1424
@<TRIPOS>BOND
     1    23    24   ar
     2    23    22   ar
     3    24    25   ar
     4    22    21   ar
     5    32    26    1
     6    25    26   ar
     7    25    20   ar
     8    26    27   ar
     9    21    20   ar
    10    21    29    1
    11    20    18   ar
    12    27    28    2
    13    27    17   ar
    14    18    17   ar
    15    18    19    1
    16    17    12    1
    17    34    19    1
    18    19    33    1
    19    31    11    1
    20    12    11   ar
    21    12    13   ar
    22    11    10   ar
    23    13    14   ar
    24    10    14   ar
    25    10     9   ar
    26    14    15   ar
    27     9     8   ar
    28    15    16   ar
    29     8    16   ar
    30     8     5    1
    31     6     5    1
    32     6     7    1
    33     5     4    1
    34     7     2    1
    35     4     3    1
    36    30     2    1
    37     2     3    1
    38     2     1    1
