@<TRIPOS>MOLECULE
5ap2_w_Lig.pdb
 36 40 0 0 0
SMALL
GASTEIGER

@<TRIPOS>ATOM
      1  N         10.9120    5.7600    3.7440 N.ar    1  PWU1       -0.2290
      2  C         10.7950    3.6350    2.7500 C.ar    1  PWU1        0.0370
      3  O          8.9750   -0.1090    4.1430 O.2     1  PWU1       -0.2227
      4  C1        11.1890    4.9650    2.7270 C.ar    1  PWU1        0.1018
      5  N1         9.8550    1.8670    3.5960 N.ar    1  PWU1       -0.2441
      6  O1         8.7130    1.5730    5.5980 O.3     1  PWU1       -0.4362
      7  C2        10.2430    5.3300    4.8250 C.ar    1  PWU1        0.1336
      8  N2        10.2960   -1.1780    0.2430 N.ar    1  PWU1       -0.2473
      9  C3         9.8210    4.0080    4.9040 C.ar    1  PWU1        0.0521
     10  N3        10.0840   -1.7770    1.2990 N.ar    1  PWU1       -0.1675
     11  C4        10.1030    3.1520    3.8490 C.ar    1  PWU1        0.0740
     12  N4        10.0040    6.2050    5.8010 N.pl3   1  PWU1       -0.2979
     13  C5        10.3580    1.5400    2.4070 C.ar    1  PWU1        0.0728
     14  N5         6.9730    5.8640   11.4150 N.ar    1  PWU1       -0.3128
     15  C6        10.9300    2.6270    1.8970 C.ar    1  PWU1        0.0208
     16  N6         6.3570    3.8950   12.0600 N.ar    1  PWU1       -0.2294
     17  C7        10.2940    0.3150    1.7550 C.ar    1  PWU1        0.0559
     18  C8        10.4380    0.1270    0.4470 C.ar    1  PWU1        0.0981
     19  C9        10.0790   -0.8830    2.2860 C.ar    1  PWU1        0.1231
     20  C10       10.3620   -1.8280   -1.0850 C.3     1  PWU1        0.1538
     21  C11        9.1840    1.0740    4.4220 C.2     1  PWU1        0.4211
     22  C12        8.0300    0.5470    6.3360 C.3     1  PWU1        0.1709
     23  C13        7.5970    1.1030    7.6950 C.3     1  PWU1        0.0474
     24  C14        6.8010    0.0710    5.5610 C.3     1  PWU1        0.0474
     25  C15        9.3530    5.8860    6.9140 C.ar    1  PWU1        0.0494
     26  C16        8.8660    4.6040    7.1450 C.ar    1  PWU1        0.0147
     27  C17        8.1870    4.3110    8.3230 C.ar    1  PWU1        0.0028
     28  C18        7.9960    5.2990    9.2800 C.ar    1  PWU1        0.0174
     29  C19        8.4770    6.5840    9.0540 C.ar    1  PWU1        0.0028
     30  C20        9.1560    6.8730    7.8750 C.ar    1  PWU1        0.0147
     31  C21        7.3340    5.0020   10.4680 C.ar    1  PWU1        0.0802
     32  C22        6.3800    5.1840   12.3900 C.ar    1  PWU1        0.1208
     33  C23        6.9480    3.7960   10.8740 C.ar    1  PWU1        0.1173
     34  C24        5.8080    5.7850   13.6810 C.3     1  PWU1        0.0718
     35  C25        7.1860    7.3260   11.3950 C.3     1  PWU1        0.1316
     36  HAA       10.3260    7.1430    5.6870 H       1  PWU1        0.1536
@<TRIPOS>BOND
     1    20     8    1
     2     8    18   ar
     3     8    10   ar
     4    18    17   ar
     5    10    19   ar
     6    17    19   ar
     7    17    13    1
     8    15    13   ar
     9    15     2   ar
    10    13     5   ar
    11     4     2   ar
    12     4     1   ar
    13     2    11   ar
    14     5    11   ar
    15     5    21   am
    16     1     7   ar
    17    11     9   ar
    18     3    21    2
    19    21     6    1
    20     7     9   ar
    21     7    12    1
    22    24    22    1
    23     6    22    1
    24    36    12    1
    25    12    25    1
    26    22    23    1
    27    25    26   ar
    28    25    30   ar
    29    26    27   ar
    30    30    29   ar
    31    27    28   ar
    32    29    28   ar
    33    28    31    1
    34    31    33   ar
    35    31    14   ar
    36    33    16   ar
    37    35    14    1
    38    14    32   ar
    39    16    32   ar
    40    32    34    1
