@<TRIPOS>MOLECULE
5ap3_w_Lig.pdb
 35 39 0 0 0
SMALL
GASTEIGER

@<TRIPOS>ATOM
      1  N        -10.4760    5.8590   -4.7970 N.ar    1  A5U1       -0.2104
      2  C         -9.7100    5.4590   -5.8230 C.ar    1  A5U1        0.2222
      3  O         -9.4550    0.6160   -2.9300 O.2     1  A5U1       -0.2462
      4  C1        -9.4260    3.3690   -4.8530 C.ar    1  A5U1        0.1676
      5  N1        -9.1840    4.2260   -5.8550 N.ar    1  A5U1       -0.1945
      6  O1        -9.2030    8.0800   -8.8670 O.3     1  A5U1       -0.4701
      7  C2       -10.2150    3.7690   -3.7820 C.ar    1  A5U1        0.1176
      8  N2       -10.2850    2.7390   -2.9470 N.ar    1  A5U1       -0.2751
      9  O2        -6.2990    5.0130  -11.0740 O.3     1  A5U1       -0.4792
     10  C3       -10.7410    5.0550   -3.7820 C.ar    1  A5U1        0.1221
     11  N3        -9.0670    2.1090   -4.6120 N.ar    1  A5U1       -0.2668
     12  C4        -9.5900    1.7200   -3.4500 C.ar    1  A5U1        0.3327
     13  N4        -9.5110    6.3000   -6.8320 N.pl3   1  A5U1       -0.2801
     14  C5        -8.2610    1.2620   -5.5020 C.3     1  A5U1        0.0913
     15  N5        -8.0660    3.3920  -14.4970 N.4     1  A5U1        0.3857
     16  C6        -8.4800    1.6080   -6.9750 C.3     1  A5U1        0.0228
     17  C7        -7.2420    0.9370   -7.5650 C.3     1  A5U1        0.0020
     18  C8        -6.1750    1.5880   -6.6850 C.3     1  A5U1        0.0020
     19  C9        -6.7580    1.4470   -5.2750 C.3     1  A5U1        0.0228
     20  C10      -11.0150    2.7300   -1.6570 C.3     1  A5U1        0.1352
     21  C11       -8.7450    5.9670   -7.8690 C.ar    1  A5U1        0.0851
     22  C12       -8.1140    4.7270   -7.9230 C.ar    1  A5U1        0.0209
     23  C13       -7.2990    4.4040   -9.0040 C.ar    1  A5U1        0.0384
     24  C14       -7.1220    5.3150  -10.0370 C.ar    1  A5U1        0.1415
     25  C15       -7.7560    6.5530   -9.9920 C.ar    1  A5U1        0.0750
     26  C16       -8.5680    6.8780   -8.9080 C.ar    1  A5U1        0.1551
     27  C17      -10.4850    7.9540   -9.4930 C.3     1  A5U1        0.2525
     28  C18       -7.0180    4.3480  -12.1220 C.3     1  A5U1        0.1617
     29  C19       -8.0720    5.2230  -12.7930 C.3     1  A5U1        0.0207
     30  C20       -8.8820    4.4030  -13.8020 C.3     1  A5U1       -0.0738
     31  C21       -6.7990    4.1280  -14.5860 C.3     1  A5U1       -0.0738
     32  C22       -6.0520    4.0020  -13.2530 C.3     1  A5U1        0.0207
     33  C23       -8.2050    3.2140  -15.9490 C.3     1  A5U1       -0.1007
     34  HAA       -7.7090    2.6560  -13.9180 H       1  A5U1       -0.0798
     35  HAB       -9.9450    7.2020   -6.8180 H       1  A5U1        0.1552
@<TRIPOS>BOND
     1    33    15    1
     2    31    15    1
     3    31    32    1
     4    15    34    1
     5    15    30    1
     6    30    29    1
     7    32    28    1
     8    29    28    1
     9    28     9    1
    10     9    24    1
    11    24    25   ar
    12    24    23   ar
    13    25    26   ar
    14    27     6    1
    15    23    22   ar
    16    26     6    1
    17    26    21   ar
    18    22    21   ar
    19    21    13    1
    20    17    16    1
    21    17    18    1
    22    16    14    1
    23    13    35    1
    24    13     2    1
    25    18    19    1
    26     5     2   ar
    27     5     4   ar
    28     2     1   ar
    29    14    19    1
    30    14    11    1
    31     4    11   ar
    32     4     7   ar
    33     1    10   ar
    34    11    12   ar
    35    10     7   ar
    36     7     8   ar
    37    12     8   ar
    38    12     3    2
    39     8    20    1
