@<TRIPOS>MOLECULE
5ap6_w_Lig.pdb
 36 40 0 0 0
SMALL
GASTEIGER

@<TRIPOS>ATOM
      1  N        -10.5470   -5.7610    3.9650 N.ar    1  PWU1       -0.2290
      2  C        -10.4460   -3.6820    2.8730 C.ar    1  PWU1        0.0370
      3  O         -8.6830    0.1410    4.0950 O.2     1  PWU1       -0.2227
      4  C1       -10.8220   -5.0190    2.9070 C.ar    1  PWU1        0.1018
      5  N1        -9.5500   -1.8630    3.6480 N.ar    1  PWU1       -0.2441
      6  O1        -8.4260   -1.4610    5.6380 O.3     1  PWU1       -0.4362
      7  C2        -9.9080   -5.2700    5.0350 C.ar    1  PWU1        0.1336
      8  N2        -9.9630    1.0280    0.1610 N.ar    1  PWU1       -0.2473
      9  C3        -9.5090   -3.9380    5.0610 C.ar    1  PWU1        0.0521
     10  N3        -9.8480    1.6790    1.2020 N.ar    1  PWU1       -0.1675
     11  C4        -9.7820   -3.1360    3.9570 C.ar    1  PWU1        0.0740
     12  N4        -9.6690   -6.0890    6.0580 N.pl3   1  PWU1       -0.2979
     13  C5       -10.0440   -1.5970    2.4390 C.ar    1  PWU1        0.0728
     14  N5        -6.7610   -5.3860   11.7090 N.ar    1  PWU1       -0.3128
     15  C6       -10.5830   -2.7200    1.9670 C.ar    1  PWU1        0.0208
     16  N6        -6.1640   -3.3840   12.2390 N.ar    1  PWU1       -0.2294
     17  C7        -9.9910   -0.4010    1.7360 C.ar    1  PWU1        0.0559
     18  C8       -10.0590   -0.2730    0.4120 C.ar    1  PWU1        0.0981
     19  C9        -9.8620    0.8300    2.2250 C.ar    1  PWU1        0.1231
     20  C10       -9.9900    1.6190   -1.1940 C.3     1  PWU1        0.1538
     21  C11       -8.8940   -1.0190    4.4400 C.2     1  PWU1        0.4211
     22  C12       -7.7760   -0.3890    6.3330 C.3     1  PWU1        0.1709
     23  C13       -8.8040    0.6850    6.6940 C.3     1  PWU1        0.0474
     24  C14       -7.1270   -0.9270    7.6100 C.3     1  PWU1        0.0474
     25  C15       -9.0410   -5.7040    7.1640 C.ar    1  PWU1        0.0494
     26  C16       -8.8390   -6.6360    8.1770 C.ar    1  PWU1        0.0147
     27  C17       -8.1900   -6.2700    9.3500 C.ar    1  PWU1        0.0028
     28  C18       -7.7320   -4.9700    9.5170 C.ar    1  PWU1        0.0174
     29  C19       -7.9270   -4.0370    8.5050 C.ar    1  PWU1        0.0028
     30  C20       -8.5750   -4.4050    7.3320 C.ar    1  PWU1        0.0147
     31  C21       -7.0960   -4.5960   10.6950 C.ar    1  PWU1        0.0802
     32  C22       -6.1950   -4.6440   12.6540 C.ar    1  PWU1        0.1208
     33  C23       -6.7220   -3.3620   11.0310 C.ar    1  PWU1        0.1173
     34  C24       -5.6580   -5.1580   13.9930 C.3     1  PWU1        0.0718
     35  C25       -6.9880   -6.8490   11.7840 C.3     1  PWU1        0.1316
     36  HAA       -9.9790   -7.0370    5.9900 H       1  PWU1        0.1536
@<TRIPOS>BOND
     1    20     8    1
     2     8    18   ar
     3     8    10   ar
     4    18    17   ar
     5    10    19   ar
     6    17    19   ar
     7    17    13    1
     8    15    13   ar
     9    15     2   ar
    10    13     5   ar
    11     2     4   ar
    12     2    11   ar
    13     4     1   ar
    14     5    11   ar
    15     5    21   am
    16    11     9   ar
    17     1     7   ar
    18     3    21    2
    19    21     6    1
    20     7     9   ar
    21     7    12    1
    22     6    22    1
    23    36    12    1
    24    12    25    1
    25    22    23    1
    26    22    24    1
    27    25    30   ar
    28    25    26   ar
    29    30    29   ar
    30    26    27   ar
    31    29    28   ar
    32    27    28   ar
    33    28    31    1
    34    31    33   ar
    35    31    14   ar
    36    33    16   ar
    37    14    35    1
    38    14    32   ar
    39    16    32   ar
    40    32    34    1
