@<TRIPOS>MOLECULE
5cas_w_Lig.pdb
 36 39 0 0 0
SMALL
GASTEIGER

@<TRIPOS>ATOM
      1  C1         7.3890    4.5650   11.3390 C.3     1  4ZQ1        0.0400
      2  C2         6.7050    3.5100   10.4680 C.3     1  4ZQ1        0.1667
      3  C3         7.3880    3.4670    9.0980 C.ar    1  4ZQ1        0.1475
      4  N4         8.1210    4.4480    8.5770 N.ar    1  4ZQ1       -0.2269
      5  C5         8.5210    4.0420    7.3790 C.ar    1  4ZQ1        0.1176
      6  C6         9.2970    4.6470    6.3980 C.ar    1  4ZQ1        0.1208
      7  N7         9.5440    4.0210    5.2610 N.ar    1  4ZQ1       -0.2274
      8  C8         9.0780    2.7860    5.0120 C.ar    1  4ZQ1        0.1348
      9  C9         8.3020    2.1210    5.9570 C.ar    1  4ZQ1        0.0532
     10  C10        8.0150    2.7690    7.1530 C.ar    1  4ZQ1        0.0832
     11  N11        7.3220    2.4500    8.2440 N.ar    1  4ZQ1       -0.3067
     12  C12        6.5580    1.2150    8.4700 C.3     1  4ZQ1        0.1816
     13  C13        5.9300    0.7520    7.1570 C.3     1  4ZQ1        0.0336
     14  C14        7.4750    0.1500    9.0730 C.3     1  4ZQ1        0.4161
     15  N18        9.3550    2.2590    3.8210 N.pl3   1  4ZQ1       -0.2832
     16  C19        8.9640    1.0480    3.4360 C.ar    1  4ZQ1        0.1377
     17  C20        9.2810    0.6480    2.1440 C.ar    1  4ZQ1        0.0552
     18  C21        8.8580   -0.5960    1.7000 C.ar    1  4ZQ1        0.1047
     19  N22        8.1660   -1.3680    2.5190 N.ar    1  4ZQ1       -0.2120
     20  C23        7.8690   -0.9760    3.7620 C.ar    1  4ZQ1        0.2214
     21  N24        8.2610    0.2230    4.2250 N.ar    1  4ZQ1       -0.1985
     22  N25        7.1340   -1.8530    4.5680 N.pl3   1  4ZQ1       -0.2752
     23  C26        6.7840   -1.5020    5.9650 C.3     1  4ZQ1        0.0963
     24  C27        7.1290   -2.6800    6.8800 C.3     1  4ZQ1        0.0539
     25  C28        6.4780   -3.9710    6.3850 C.3     1  4ZQ1        0.1511
     26  C29        7.0380   -4.2900    4.9990 C.3     1  4ZQ1        0.2075
     27  C30        6.7050   -3.1590    4.0240 C.3     1  4ZQ1        0.1313
     28  O32        6.8010   -5.0410    7.2880 O.3     1  4ZQ1       -0.3507
     29  C33        6.2040   -4.7780    8.5610 C.3     1  4ZQ1        0.1741
     30  O34        5.3210    3.8140   10.2930 O.3     1  4ZQ1       -0.3770
     31  F15        7.9950    0.6000   10.2080 F       1  4ZQ1       -0.1680
     32  F16        6.7760   -0.9510    9.3190 F       1  4ZQ1       -0.1680
     33  F17        8.4550   -0.1340    8.2180 F       1  4ZQ1       -0.1680
     34  F31        8.4100   -4.4840    5.0640 F       1  4ZQ1       -0.2328
     35  HAA        5.2270    4.7320    9.9050 H       1  4ZQ1        0.2109
     36  HAB        9.8850    2.8100    3.1770 H       1  4ZQ1        0.1550
@<TRIPOS>BOND
     1    18    17   ar
     2    18    19   ar
     3    17    16   ar
     4    19    20   ar
     5    36    15    1
     6    16    15    1
     7    16    21   ar
     8    20    21   ar
     9    20    22    1
    10    15     8    1
    11    27    22    1
    12    27    26    1
    13    22    23    1
    14    26    34    1
    15    26    25    1
    16     8     7   ar
    17     8     9   ar
    18     7     6   ar
    19     9    10   ar
    20    23    24    1
    21    25    24    1
    22    25    28    1
    23     6     5   ar
    24    10     5   ar
    25    10    11   ar
    26    13    12    1
    27    28    29    1
    28     5     4   ar
    29    33    14    1
    30    11    12    1
    31    11     3   ar
    32    12    14    1
    33     4     3   ar
    34    14    32    1
    35    14    31    1
    36     3     2    1
    37    35    30    1
    38    30     2    1
    39     2     1    1
