@<TRIPOS>MOLECULE
5cav_w_Lig.pdb
 36 39 0 0 0
SMALL
GASTEIGER

@<TRIPOS>ATOM
      1  C1         7.6250    6.4090   10.7980 C.3     1  4ZQ1        0.0400
      2  C2         6.6320    6.2010    9.6550 C.3     1  4ZQ1        0.1667
      3  C3         7.4010    5.8950    8.3670 C.ar    1  4ZQ1        0.1475
      4  N4         8.2520    6.7290    7.7740 N.ar    1  4ZQ1       -0.2269
      5  C5         8.7030    6.1130    6.6830 C.ar    1  4ZQ1        0.1176
      6  C6         9.5950    6.5030    5.6900 C.ar    1  4ZQ1        0.1208
      7  N7         9.8610    5.6970    4.6820 N.ar    1  4ZQ1       -0.2274
      8  C8         9.3070    4.4790    4.5720 C.ar    1  4ZQ1        0.1348
      9  C9         8.4120    4.0230    5.5340 C.ar    1  4ZQ1        0.0532
     10  C10        8.1050    4.8600    6.6030 C.ar    1  4ZQ1        0.0832
     11  N11        7.3100    4.7670    7.6650 N.ar    1  4ZQ1       -0.3067
     12  C12        6.4340    3.6370    8.0090 C.3     1  4ZQ1        0.1816
     13  C13        5.8770    3.0130    6.7260 C.3     1  4ZQ1        0.0336
     14  C14        7.2110    2.6140    8.8400 C.3     1  4ZQ1        0.4161
     15  N18        9.5990    3.7750    3.4820 N.pl3   1  4ZQ1       -0.2832
     16  C19        9.1320    2.5540    3.2380 C.ar    1  4ZQ1        0.1377
     17  C20        9.4720    1.9560    2.0320 C.ar    1  4ZQ1        0.0552
     18  C21        8.9620    0.7010    1.7310 C.ar    1  4ZQ1        0.1047
     19  N22        8.1710    0.1040    2.6040 N.ar    1  4ZQ1       -0.2120
     20  C23        7.8560    0.6870    3.7690 C.ar    1  4ZQ1        0.2214
     21  N24        8.3250    1.8990    4.0870 N.ar    1  4ZQ1       -0.1985
     22  N25        7.0340   -0.0220    4.6540 N.pl3   1  4ZQ1       -0.2752
     23  C26        6.6760    0.5370    5.9780 C.3     1  4ZQ1        0.0963
     24  C27        6.9740   -0.5050    7.0560 C.3     1  4ZQ1        0.0539
     25  C28        6.2840   -1.8390    6.7410 C.3     1  4ZQ1        0.1511
     26  C29        6.8310   -2.3610    5.4140 C.3     1  4ZQ1        0.2075
     27  C30        6.5400   -1.3650    4.2890 C.3     1  4ZQ1        0.1313
     28  O32        6.5700   -2.7820    7.7810 O.3     1  4ZQ1       -0.3507
     29  C33        5.9910   -2.3380    9.0090 C.3     1  4ZQ1        0.1741
     30  O34        5.8360    7.3720    9.4570 O.3     1  4ZQ1       -0.3770
     31  F15        7.6600    3.1910    9.9490 F       1  4ZQ1       -0.1680
     32  F16        6.4030    1.6080    9.1640 F       1  4ZQ1       -0.1680
     33  F17        8.2370    2.1450    8.1360 F       1  4ZQ1       -0.1680
     34  F31        8.1910   -2.5940    5.5090 F       1  4ZQ1       -0.2328
     35  HAA        6.4310    8.1540    9.2700 H       1  4ZQ1        0.2109
     36  HAB       10.2010    4.1930    2.8000 H       1  4ZQ1        0.1550
@<TRIPOS>BOND
     1    18    17   ar
     2    18    19   ar
     3    17    16   ar
     4    19    20   ar
     5    36    15    1
     6    16    15    1
     7    16    21   ar
     8    15     8    1
     9    20    21   ar
    10    20    22    1
    11    27    22    1
    12    27    26    1
    13     8     7   ar
    14     8     9   ar
    15    22    23    1
    16     7     6   ar
    17    26    34    1
    18    26    25    1
    19     9    10   ar
    20     6     5   ar
    21    23    24    1
    22    10     5   ar
    23    10    11   ar
    24     5     4   ar
    25    13    12    1
    26    25    24    1
    27    25    28    1
    28    11    12    1
    29    11     3   ar
    30     4     3   ar
    31    28    29    1
    32    12    14    1
    33    33    14    1
    34     3     2    1
    35    14    32    1
    36    14    31    1
    37    35    30    1
    38    30     2    1
    39     2     1    1
