@<TRIPOS>MOLECULE
5em8_w_Lig.pdb
 36 39 0 0 0
SMALL
GASTEIGER

@<TRIPOS>ATOM
      1  C1         5.1160   11.2780   13.4280 C.3     1  5Q41       -0.1005
      2  N2         5.5800   10.2780   12.4520 N.4     1  5Q41        0.3878
      3  C3         5.5370   10.8410   11.0960 C.3     1  5Q41       -0.0556
      4  C4         6.0200    9.7920   10.0920 C.3     1  5Q41        0.0680
      5  N5         7.3990    9.3980   10.4130 N.pl3   1  5Q41       -0.3118
      6  C6         7.4500    8.8420   11.7740 C.3     1  5Q41        0.0680
      7  C7         6.9660    9.8970   12.7730 C.3     1  5Q41       -0.0556
      8  C8         7.8110    8.4830    9.5360 C.ar    1  5Q41        0.0478
      9  C9         7.1390    7.2690    9.4360 C.ar    1  5Q41        0.0158
     10  C10        7.5470    6.3280    8.4990 C.ar    1  5Q41        0.0159
     11  C11        8.6210    6.5920    7.6630 C.ar    1  5Q41        0.0506
     12  C12        9.2940    7.8020    7.7710 C.ar    1  5Q41        0.0159
     13  C13        8.8910    8.7450    8.7040 C.ar    1  5Q41        0.0158
     14  N14        8.9910    5.7090    6.7400 N.am    1  5Q41       -0.2802
     15  C15        8.3460    4.5520    6.6390 C.2     1  5Q41        0.2554
     16  O16        7.4040    4.2230    7.3580 O.2     1  5Q41       -0.2696
     17  C17        8.8530    3.6110    5.5420 C.ar    1  5Q41        0.1228
     18  C18        8.3510    2.3170    5.4620 C.ar    1  5Q41        0.0589
     19  C19        8.7960    1.4610    4.4570 C.ar    1  5Q41        0.0334
     20  C20        9.7390    1.8920    3.5330 C.ar    1  5Q41        0.0760
     21  N21       10.2390    3.1950    3.6050 N.ar    1  5Q41       -0.3197
     22  C23        9.7900    4.0560    4.6140 C.ar    1  5Q41        0.2633
     23  O24       10.2280    5.2030    4.6770 O.2     1  5Q41       -0.2670
     24  N25        7.4540    1.9140    6.3650 N.pl3   1  5Q41       -0.3099
     25  C26        6.9240    0.6910    6.3550 C.ar    1  5Q41        0.0828
     26  C27        7.2680   -0.2490    5.3900 C.ar    1  5Q41        0.0177
     27  C28        6.6860   -1.5100    5.4050 C.ar    1  5Q41        0.0015
     28  C29        5.7600   -1.8380    6.3840 C.ar    1  5Q41        0.0032
     29  C30        5.4170   -0.9070    7.3540 C.ar    1  5Q41        0.0382
     30  C31        5.9960    0.3590    7.3390 C.ar    1  5Q41        0.1520
     31  O32        5.6560    1.2730    8.2870 O.3     1  5Q41       -0.4702
     32  C33        6.5370    1.1500    9.4020 C.3     1  5Q41        0.2525
     33  HAA        4.9980    9.4640   12.4930 H       1  5Q41       -0.0797
     34  HAB        9.7570    5.9370    6.1350 H       1  5Q41        0.1552
     35  HAC       10.9190    3.5120    2.9420 H       1  5Q41        0.1690
     36  HAD        7.1610    2.5560    7.0750 H       1  5Q41        0.1523
@<TRIPOS>BOND
     1    35    21    1
     2    20    21   ar
     3    20    19   ar
     4    21    22   ar
     5    19    18   ar
     6    22    23    2
     7    22    17   ar
     8    26    27   ar
     9    26    25   ar
    10    27    28   ar
    11    18    17   ar
    12    18    24    1
    13    17    15    1
    14    34    14    1
    15    25    24    1
    16    25    30   ar
    17    24    36    1
    18    28    29   ar
    19    15    14   am
    20    15    16    2
    21    14    11    1
    22    30    29   ar
    23    30    31    1
    24    11    12   ar
    25    11    10   ar
    26    12    13   ar
    27    31    32    1
    28    10     9   ar
    29    13     8   ar
    30     9     8   ar
    31     8     5    1
    32     4     5    1
    33     4     3    1
    34     5     6    1
    35     3     2    1
    36     6     7    1
    37     2    33    1
    38     2     7    1
    39     2     1    1
