C27H34N6
APtclcactv01052013383D 0   0.00000     0.00000     1
 
 67 71  0  0  1  0  0  0  0  0999 V2000
    4.7490   13.7370    9.7180 C   0  0  0  0  0  0  0  0  0  0  0  0
    6.6490   -0.1910    5.5480 C   0  0  0  0  0  0  0  0  0  0  0  0
   11.2970   -1.1520    3.8890 C   0  0  0  0  0  0  0  0  0  0  0  0
   11.1840   -0.2390    4.9310 C   0  0  0  0  0  0  0  0  0  0  0  0
   10.1860   -1.4550    3.1100 C   0  0  0  0  0  0  0  0  0  0  0  0
    9.9650    0.3770    5.1870 C   0  0  0  0  0  0  0  0  0  0  0  0
    8.9680   -0.8380    3.3660 C   0  0  0  0  0  0  0  0  0  0  0  0
    8.7360    8.8430    9.0840 C   0  0  0  0  0  0  0  0  0  0  0  0
    7.3230    7.1630   10.0720 C   0  0  0  0  0  0  0  0  0  0  0  0
    9.0040    7.9910    8.0200 C   0  0  0  0  0  0  0  0  0  0  0  0
    7.5920    6.3130    9.0050 C   0  0  0  0  0  0  0  0  0  0  0  0
    8.1950    4.6590    6.7470 C   0  0  0  0  0  0  0  0  0  0  0  0
    5.0990   13.0260   11.0270 C   0  0  0  0  0  0  0  0  0  0  0  0
    6.7590   11.7140    9.8810 C   0  0  0  0  0  0  0  0  0  0  0  0
    6.8330   11.9250   12.2690 C   0  0  0  0  0  0  0  0  0  0  0  0
    5.8970   10.4590   10.0130 C   0  0  0  0  0  0  0  0  0  0  0  0
    5.9570   10.6780   12.4090 C   0  0  0  0  0  0  0  0  0  0  0  0
    7.6120    9.3670   11.2890 C   0  0  0  0  0  0  0  0  0  0  0  0
    7.8960    8.4310   10.1130 C   0  0  0  0  0  0  0  0  0  0  0  0
    8.4340    6.7270    7.9810 C   0  0  0  0  0  0  0  0  0  0  0  0
    8.8590    0.0840    4.4000 C   0  0  0  0  0  0  0  0  0  0  0  0
    7.7140    2.0110    5.4080 N   0  0  0  0  0  0  0  0  0  0  0  0
    9.4760    6.1790    5.8740 N   0  0  0  0  0  0  0  0  0  0  0  0
    8.6940    5.8810    6.9090 C   0  0  0  0  0  0  0  0  0  0  0  0
    7.5080    0.7460    4.6930 C   0  0  2  0  0  0  0  0  0  0  0  0
    6.5060   12.6140   11.0140 N   0  3  0  0  0  0  0  0  0  0  0  0
    6.1980    9.7740   11.2770 N   0  3  0  0  0  0  0  0  0  0  0  0
    9.0940    2.8160    3.7300 N   0  0  0  0  0  0  0  0  0  0  0  0
    9.8640    3.7640    3.2280 C   0  0  0  0  0  0  0  0  0  0  0  0
   10.0630    4.9090    3.8600 N   0  0  0  0  0  0  0  0  0  0  0  0
    9.4780    5.1400    5.0400 C   0  0  0  0  0  0  0  0  0  0  0  0
    8.6540    4.1730    5.5980 C   0  0  0  0  0  0  0  0  0  0  0  0
    8.4730    2.9800    4.9070 C   0  0  0  0  0  0  0  0  0  0  0  0
    7.0770   13.4250   10.9100 H   0  0  0  0  0  0  0  0  0  0  0  0
    5.6240    8.9630   11.3580 H   0  0  0  0  0  0  0  0  0  0  0  0
    7.2550    2.1090    6.2910 H   0  0  0  0  0  0  0  0  0  0  0  0
    9.9800    7.0340    5.7460 H   0  0  0  0  0  0  0  0  0  0  0  0
    4.9937   13.1143    8.8260 H   0  0  0  0  0  0  0  0  0  0  0  0
    5.4330   14.5930    9.5118 H   0  0  0  0  0  0  0  0  0  0  0  0
    3.6790   14.0503    9.7279 H   0  0  0  0  0  0  0  0  0  0  0  0
    7.1727   -0.5073    6.4801 H   0  0  0  0  0  0  0  0  0  0  0  0
    6.5315   -1.1965    5.0806 H   0  0  0  0  0  0  0  0  0  0  0  0
    5.6662    0.2906    5.7611 H   0  0  0  0  0  0  0  0  0  0  0  0
   12.2664   -1.6351    3.6807 H   0  0  0  0  0  0  0  0  0  0  0  0
   12.0623   -0.0031    5.5552 H   0  0  0  0  0  0  0  0  0  0  0  0
   10.2710   -2.1856    2.2881 H   0  0  0  0  0  0  0  0  0  0  0  0
    9.8752    1.0993    6.0158 H   0  0  0  0  0  0  0  0  0  0  0  0
    8.0871   -1.0803    2.7480 H   0  0  0  0  0  0  0  0  0  0  0  0
    9.1906    9.8476    9.1118 H   0  0  0  0  0  0  0  0  0  0  0  0
    6.6556    6.8317   10.8853 H   0  0  0  0  0  0  0  0  0  0  0  0
    9.6706    8.3187    7.2046 H   0  0  0  0  0  0  0  0  0  0  0  0
    7.1368    5.3089    8.9708 H   0  0  0  0  0  0  0  0  0  0  0  0
    7.5176    4.1386    7.4449 H   0  0  0  0  0  0  0  0  0  0  0  0
    4.4150   12.1700   11.2332 H   0  0  0  0  0  0  0  0  0  0  0  0
    4.8543   13.6487   11.9190 H   0  0  0  0  0  0  0  0  0  0  0  0
    7.8415   11.4694    9.7739 H   0  0  0  0  0  0  0  0  0  0  0  0
    6.6104   12.2231    8.9002 H   0  0  0  0  0  0  0  0  0  0  0  0
    6.7515   12.5989   13.1535 H   0  0  0  0  0  0  0  0  0  0  0  0
    7.9196   11.6880   12.3491 H   0  0  0  0  0  0  0  0  0  0  0  0
    6.0072    9.7819    9.1340 H   0  0  0  0  0  0  0  0  0  0  0  0
    4.8102   10.6855    9.9087 H   0  0  0  0  0  0  0  0  0  0  0  0
    4.8774   10.9336   12.5198 H   0  0  0  0  0  0  0  0  0  0  0  0
    6.1036   10.1700   13.3906 H   0  0  0  0  0  0  0  0  0  0  0  0
    7.9088    8.9152   12.2642 H   0  0  0  0  0  0  0  0  0  0  0  0
    8.2997   10.2446   11.3004 H   0  0  0  0  0  0  0  0  0  0  0  0
    6.9874    0.9511    3.7286 H   0  0  0  0  0  0  0  0  0  0  0  0
   10.3542    3.5949    2.2545 H   0  0  0  0  0  0  0  0  0  0  0  0
  1 13  1  0  0  0  0
  2 25  1  0  0  0  0
  3  4  1  0  0  0  0
  3  5  2  0  0  0  0
  4  6  2  0  0  0  0
  5  7  1  0  0  0  0
  6 21  1  0  0  0  0
  7 21  2  0  0  0  0
  8 10  1  0  0  0  0
  8 19  2  0  0  0  0
  9 11  2  0  0  0  0
  9 19  1  0  0  0  0
 10 20  2  0  0  0  0
 11 20  1  0  0  0  0
 12 32  1  0  0  0  0
 12 24  2  0  0  0  0
 13 26  1  0  0  0  0
 14 26  1  0  0  0  0
 14 16  1  0  0  0  0
 15 26  1  0  0  0  0
 15 17  1  0  0  0  0
 16 27  1  0  0  0  0
 17 27  1  0  0  0  0
 18 27  1  0  0  0  0
 18 19  1  0  0  0  0
 20 24  1  0  0  0  0
 21 25  1  0  0  0  0
 22 36  1  0  0  0  0
 22 33  1  0  0  0  0
 22 25  1  0  0  0  0
 23 37  1  0  0  0  0
 23 24  1  0  0  0  0
 23 31  1  0  0  0  0
 26 34  1  0  0  0  0
 27 35  1  0  0  0  0
 28 29  1  0  0  0  0
 28 33  2  0  0  0  0
 29 30  2  0  0  0  0
 30 31  1  0  0  0  0
 31 32  2  0  0  0  0
 32 33  1  0  0  0  0
  1 38  1  0  0  0  0
  1 39  1  0  0  0  0
  1 40  1  0  0  0  0
  2 41  1  0  0  0  0
  2 42  1  0  0  0  0
  2 43  1  0  0  0  0
  3 44  1  0  0  0  0
  4 45  1  0  0  0  0
  5 46  1  0  0  0  0
  6 47  1  0  0  0  0
  7 48  1  0  0  0  0
  8 49  1  0  0  0  0
  9 50  1  0  0  0  0
 10 51  1  0  0  0  0
 11 52  1  0  0  0  0
 12 53  1  0  0  0  0
 13 54  1  0  0  0  0
 13 55  1  0  0  0  0
 14 56  1  0  0  0  0
 14 57  1  0  0  0  0
 15 58  1  0  0  0  0
 15 59  1  0  0  0  0
 16 60  1  0  0  0  0
 16 61  1  0  0  0  0
 17 62  1  0  0  0  0
 17 63  1  0  0  0  0
 18 64  1  0  0  0  0
 18 65  1  0  0  0  0
 25 66  1  0  0  0  0
 29 67  1  0  0  0  0
M  CHG  2  26   1  27   1
M  END
> <UNIQUE_SMILES>
CC[NH+]1CC[NH+](CC1)Cc2ccc(cc2)c3[nH]c4ncnc(NC(C)c5ccccc5)c4c3

$$$$
