C23H28FN4O3
APtclcactv01052013413D 0   0.00000     0.00000     1
 
 59 62  0  0  0  0  0  0  0  0999 V2000
    9.2840    7.7660    7.8850 C   0  0  0  0  0  0  0  0  0  0  0  0
    6.6310   -2.1370    4.7370 C   0  0  0  0  0  0  0  0  0  0  0  0
    6.6530   -0.9380    5.4450 C   0  0  0  0  0  0  0  0  0  0  0  0
    8.1540   -0.0030    3.8130 C   0  0  0  0  0  0  0  0  0  0  0  0
    8.8270    5.7840    6.2100 C   0  0  0  0  0  0  0  0  0  0  0  0
    7.3500    3.6160    7.1340 C   0  0  0  0  0  0  0  0  0  0  0  0
    5.3730    3.7350   10.6920 C   0  0  0  0  0  0  0  0  0  0  0  0
    6.4580    3.6730    9.6120 C   0  0  0  0  0  0  0  0  0  0  0  0
    7.1360    5.1030   14.7720 C   0  0  0  0  0  0  0  0  0  0  0  0
    5.4930    3.4750   14.1190 C   0  0  0  0  0  0  0  0  0  0  0  0
    5.6890    4.7870   11.7570 C   0  0  0  0  0  0  0  0  0  0  0  0
    6.9080    5.6180   13.3480 C   0  0  0  0  0  0  0  0  0  0  0  0
    6.4870    3.1710   12.9960 C   0  0  0  0  0  0  0  0  0  0  0  0
    7.3760   -2.2700    3.5700 C   0  0  0  0  0  0  0  0  0  0  0  0
    8.1380   -1.2010    3.1100 C   0  0  0  0  0  0  0  0  0  0  0  0
    7.4090    0.1320    4.9810 C   0  0  0  0  0  0  0  0  0  0  0  0
    8.0710    5.9010    7.3720 C   0  0  0  0  0  0  0  0  0  0  0  0
    7.4090    1.2770    5.6580 N   0  0  0  0  0  0  0  0  0  0  0  0
    8.0480    7.0750    8.0560 O   0  0  0  0  0  0  0  0  0  0  0  0
    6.1050    4.2000   15.1960 O   0  0  0  0  0  0  0  0  0  0  0  0
    6.5680    4.9450    8.9530 O   0  0  0  0  0  0  0  0  0  0  0  0
    7.3320    4.8170    7.8340 C   0  0  0  0  0  0  0  0  0  0  0  0
    6.9400    4.4550   12.4520 N   0  3  0  0  0  0  0  0  0  0  0  0
    9.0670   -1.3620    1.6580 C   0  0  0  0  0  0  0  0  0  0  0  0
    8.8540    2.2710    4.1230 N   0  0  0  0  0  0  0  0  0  0  0  0
    9.5450    3.3200    3.7100 C   0  0  0  0  0  0  0  0  0  0  0  0
    9.5460    4.4570    4.3790 N   0  0  0  0  0  0  0  0  0  0  0  0
    8.8370    4.5850    5.5090 C   0  0  0  0  0  0  0  0  0  0  0  0
    8.0980    3.5060    5.9720 C   0  0  0  0  0  0  0  0  0  0  0  0
    8.1220    2.3250    5.2440 C   0  0  0  0  0  0  0  0  0  0  0  0
    7.3490   -3.4270    2.8800 F   0  0  0  0  0  0  0  0  0  0  0  0
    7.5150    4.5130   11.6340 H   0  0  0  0  0  0  0  0  0  0  0  0
    6.8640    1.3550    6.4900 H   0  0  0  0  0  0  0  0  0  0  0  0
    9.5333    7.9151    6.8085 H   0  0  0  0  0  0  0  0  0  0  0  0
   10.1579    7.1345    8.1692 H   0  0  0  0  0  0  0  0  0  0  0  0
    9.2651    8.7293    8.4462 H   0  0  0  0  0  0  0  0  0  0  0  0
    6.0229   -2.9822    5.1009 H   0  0  0  0  0  0  0  0  0  0  0  0
    6.0701   -0.8356    6.3758 H   0  0  0  0  0  0  0  0  0  0  0  0
    8.7589    0.8420    3.4434 H   0  0  0  0  0  0  0  0  0  0  0  0
    9.4178    6.6409    5.8449 H   0  0  0  0  0  0  0  0  0  0  0  0
    6.7714    2.7513    7.5002 H   0  0  0  0  0  0  0  0  0  0  0  0
    4.3649    3.9003   10.2451 H   0  0  0  0  0  0  0  0  0  0  0  0
    5.1992    2.7335   11.1502 H   0  0  0  0  0  0  0  0  0  0  0  0
    6.2820    2.8419    8.8898 H   0  0  0  0  0  0  0  0  0  0  0  0
    7.4362    3.3283   10.0214 H   0  0  0  0  0  0  0  0  0  0  0  0
    8.1448    4.6396   14.8758 H   0  0  0  0  0  0  0  0  0  0  0  0
    7.2530    5.9468   15.4914 H   0  0  0  0  0  0  0  0  0  0  0  0
    4.5944    4.0088   13.7307 H   0  0  0  0  0  0  0  0  0  0  0  0
    4.9998    2.5448   14.4859 H   0  0  0  0  0  0  0  0  0  0  0  0
    4.8423    4.9232   12.4695 H   0  0  0  0  0  0  0  0  0  0  0  0
    5.7129    5.8163   11.3290 H   0  0  0  0  0  0  0  0  0  0  0  0
    7.6286    6.4158   13.0525 H   0  0  0  0  0  0  0  0  0  0  0  0
    5.9755    6.2208   13.2466 H   0  0  0  0  0  0  0  0  0  0  0  0
    6.0693    2.4912   12.2171 H   0  0  0  0  0  0  0  0  0  0  0  0
    7.3278    2.5163   13.3242 H   0  0  0  0  0  0  0  0  0  0  0  0
   10.1266   -1.1002    1.8857 H   0  0  0  0  0  0  0  0  0  0  0  0
    8.7795   -0.5400    0.9617 H   0  0  0  0  0  0  0  0  0  0  0  0
    9.0542   -2.3236    1.0937 H   0  0  0  0  0  0  0  0  0  0  0  0
   10.1367    3.2445    2.7822 H   0  0  0  0  0  0  0  0  0  0  0  0
  1 19  1  0  0  0  0
  2 14  1  0  0  0  0
  2  3  2  0  0  0  0
  3 16  1  0  0  0  0
  4 15  1  0  0  0  0
  4 16  2  0  0  0  0
  5 28  1  0  0  0  0
  5 17  2  0  0  0  0
  6 29  1  0  0  0  0
  6 22  2  0  0  0  0
  7 11  1  0  0  0  0
  7  8  1  0  0  0  0
  8 21  1  0  0  0  0
  9 20  1  0  0  0  0
  9 12  1  0  0  0  0
 10 20  1  0  0  0  0
 10 13  1  0  0  0  0
 11 23  1  0  0  0  0
 12 23  1  0  0  0  0
 13 23  1  0  0  0  0
 14 31  1  0  0  0  0
 14 15  2  0  0  0  0
 15 24  1  0  0  0  0
 16 18  1  0  0  0  0
 17 19  1  0  0  0  0
 17 22  1  0  0  0  0
 18 33  1  0  0  0  0
 18 30  1  0  0  0  0
 21 22  1  0  0  0  0
 23 32  1  0  0  0  0
 25 26  1  0  0  0  0
 25 30  2  0  0  0  0
 26 27  2  0  0  0  0
 27 28  1  0  0  0  0
 28 29  2  0  0  0  0
 29 30  1  0  0  0  0
  1 34  1  0  0  0  0
  1 35  1  0  0  0  0
  1 36  1  0  0  0  0
  2 37  1  0  0  0  0
  3 38  1  0  0  0  0
  4 39  1  0  0  0  0
  5 40  1  0  0  0  0
  6 41  1  0  0  0  0
  7 42  1  0  0  0  0
  7 43  1  0  0  0  0
  8 44  1  0  0  0  0
  8 45  1  0  0  0  0
  9 46  1  0  0  0  0
  9 47  1  0  0  0  0
 10 48  1  0  0  0  0
 10 49  1  0  0  0  0
 11 50  1  0  0  0  0
 11 51  1  0  0  0  0
 12 52  1  0  0  0  0
 12 53  1  0  0  0  0
 13 54  1  0  0  0  0
 13 55  1  0  0  0  0
 24 56  1  0  0  0  0
 24 57  1  0  0  0  0
 24 58  1  0  0  0  0
 26 59  1  0  0  0  0
M  CHG  1  23   1
M  END
> <UNIQUE_SMILES>
COc1cc2ncnc(Nc3ccc(F)c(C)c3)c2cc1OCCC[NH+]4CCOCC4

$$$$
