C29H30N8O
APtclcactv01052013463D 0   0.00000     0.00000     1
 
 68 72  0  0  0  0  0  0  0  0999 V2000
  -10.7810    7.9530   -0.0640 C   0  0  0  0  0  0  0  0  0  0  0  0
   -6.0710    2.9160   -6.0620 C   0  0  0  0  0  0  0  0  0  0  0  0
   -4.5920    4.8600   -5.4880 C   0  0  0  0  0  0  0  0  0  0  0  0
   -4.4480    2.7380   -4.1580 C   0  0  0  0  0  0  0  0  0  0  0  0
   -8.5800    9.0470   -2.9700 C   0  0  0  0  0  0  0  0  0  0  0  0
   -9.4840    9.0790   -1.9170 C   0  0  0  0  0  0  0  0  0  0  0  0
   -7.9920    7.8450   -3.3420 C   0  0  0  0  0  0  0  0  0  0  0  0
   -9.0230    0.3040   -0.0560 C   0  0  0  0  0  0  0  0  0  0  0  0
  -10.8130    1.0540    1.3600 C   0  0  0  0  0  0  0  0  0  0  0  0
   -9.1190   -0.9690    0.4990 C   0  0  0  0  0  0  0  0  0  0  0  0
  -10.9080   -0.2170    1.9150 C   0  0  0  0  0  0  0  0  0  0  0  0
  -10.9550   -6.5400    4.7160 C   0  0  0  0  0  0  0  0  0  0  0  0
  -11.8520   -5.5720    5.1580 C   0  0  0  0  0  0  0  0  0  0  0  0
   -9.2070    6.7060   -1.6070 C   0  0  0  0  0  0  0  0  0  0  0  0
   -7.0820    3.4730   -3.0600 C   0  0  0  0  0  0  0  0  0  0  0  0
  -10.0560   -4.9920    3.1080 C   0  0  0  0  0  0  0  0  0  0  0  0
   -8.8460    2.7960   -1.0660 C   0  0  0  0  0  0  0  0  0  0  0  0
   -9.2050   -7.1830    3.2770 N   0  0  0  0  0  0  0  0  0  0  0  0
   -6.8600    5.4680   -3.9140 N   0  0  0  0  0  0  0  0  0  0  0  0
   -9.7570    2.5420   -0.1300 N   0  0  0  0  0  0  0  0  0  0  0  0
   -8.7830    4.0430   -1.5250 N   0  0  0  0  0  0  0  0  0  0  0  0
  -10.1050   -2.4450    2.0280 N   0  0  0  0  0  0  0  0  0  0  0  0
   -8.0670    1.9280   -1.4620 O   0  0  0  0  0  0  0  0  0  0  0  0
   -9.7990    7.9090   -1.2360 C   0  0  0  0  0  0  0  0  0  0  0  0
  -10.0600   -6.2530    3.6920 C   0  0  0  0  0  0  0  0  0  0  0  0
   -9.8670    1.3200    0.3760 C   0  0  0  0  0  0  0  0  0  0  0  0
  -10.0580   -1.2320    1.4880 C   0  0  0  0  0  0  0  0  0  0  0  0
   -8.3010    6.6740   -2.6610 C   0  0  0  0  0  0  0  0  0  0  0  0
   -6.4430    4.2050   -3.9660 C   0  0  0  0  0  0  0  0  0  0  0  0
   -7.8930    4.3450   -2.4700 C   0  0  0  0  0  0  0  0  0  0  0  0
   -5.3780    3.6740   -4.9280 C   0  0  0  0  0  0  0  0  0  0  0  0
   -7.7090    5.5390   -3.0260 N   0  0  0  0  0  0  0  0  0  0  0  0
  -11.8380   -1.8510    3.4600 N   0  0  0  0  0  0  0  0  0  0  0  0
  -12.6780   -2.1600    4.4310 C   0  0  0  0  0  0  0  0  0  0  0  0
  -12.6920   -3.3600    4.9830 N   0  0  0  0  0  0  0  0  0  0  0  0
  -11.8420   -4.3130    4.5730 C   0  0  0  0  0  0  0  0  0  0  0  0
  -10.9480   -4.0220    3.5500 C   0  0  0  0  0  0  0  0  0  0  0  0
  -10.9670   -2.7530    2.9930 C   0  0  0  0  0  0  0  0  0  0  0  0
  -10.3740    3.2600    0.1970 H   0  0  0  0  0  0  0  0  0  0  0  0
   -9.3930    4.7580   -1.1820 H   0  0  0  0  0  0  0  0  0  0  0  0
   -9.4730   -3.1470    1.7010 H   0  0  0  0  0  0  0  0  0  0  0  0
   -9.2100   -8.0910    3.6950 H   0  0  0  0  0  0  0  0  0  0  0  0
   -8.5530   -6.9740    2.5500 H   0  0  0  0  0  0  0  0  0  0  0  0
  -11.7286    8.4251   -0.4137 H   0  0  0  0  0  0  0  0  0  0  0  0
  -10.4176    8.7054    0.6743 H   0  0  0  0  0  0  0  0  0  0  0  0
  -11.0337    7.0144    0.4823 H   0  0  0  0  0  0  0  0  0  0  0  0
   -5.3514    2.6021   -6.8538 H   0  0  0  0  0  0  0  0  0  0  0  0
   -6.7128    3.5865   -6.6798 H   0  0  0  0  0  0  0  0  0  0  0  0
   -6.6442    2.0512   -5.6536 H   0  0  0  0  0  0  0  0  0  0  0  0
   -5.2338    5.5305   -6.1058 H   0  0  0  0  0  0  0  0  0  0  0  0
   -3.8724    4.5461   -6.2798 H   0  0  0  0  0  0  0  0  0  0  0  0
   -4.0870    5.4124   -4.6616 H   0  0  0  0  0  0  0  0  0  0  0  0
   -3.7154    2.2334   -4.8302 H   0  0  0  0  0  0  0  0  0  0  0  0
   -4.9823    1.8321   -3.7877 H   0  0  0  0  0  0  0  0  0  0  0  0
   -3.9430    3.2904   -3.3316 H   0  0  0  0  0  0  0  0  0  0  0  0
   -8.3293    9.9753   -3.5103 H   0  0  0  0  0  0  0  0  0  0  0  0
   -9.9516   10.0333   -1.6217 H   0  0  0  0  0  0  0  0  0  0  0  0
   -7.2769    7.8203   -4.1814 H   0  0  0  0  0  0  0  0  0  0  0  0
   -8.2755    0.5084   -0.8409 H   0  0  0  0  0  0  0  0  0  0  0  0
  -11.4907    1.8544    1.7016 H   0  0  0  0  0  0  0  0  0  0  0  0
   -8.4478   -1.7732    0.1534 H   0  0  0  0  0  0  0  0  0  0  0  0
  -11.6597   -0.4206    2.6961 H   0  0  0  0  0  0  0  0  0  0  0  0
  -10.9534   -7.5406    5.1800 H   0  0  0  0  0  0  0  0  0  0  0  0
  -12.5662   -5.8011    5.9667 H   0  0  0  0  0  0  0  0  0  0  0  0
   -9.4559    5.7778   -1.0656 H   0  0  0  0  0  0  0  0  0  0  0  0
   -6.9666    2.3967   -2.8480 H   0  0  0  0  0  0  0  0  0  0  0  0
   -9.3465   -4.7616    2.2955 H   0  0  0  0  0  0  0  0  0  0  0  0
  -13.3869   -1.3953    4.7906 H   0  0  0  0  0  0  0  0  0  0  0  0
  1 24  1  0  0  0  0
  2 31  1  0  0  0  0
  3 31  1  0  0  0  0
  4 31  1  0  0  0  0
  5  6  1  0  0  0  0
  5  7  2  0  0  0  0
  6 24  2  0  0  0  0
  7 28  1  0  0  0  0
  8 26  1  0  0  0  0
  8 10  2  0  0  0  0
  9 11  1  0  0  0  0
  9 26  2  0  0  0  0
 10 27  1  0  0  0  0
 11 27  2  0  0  0  0
 12 25  1  0  0  0  0
 12 13  2  0  0  0  0
 13 36  1  0  0  0  0
 14 28  2  0  0  0  0
 14 24  1  0  0  0  0
 15 29  1  0  0  0  0
 15 30  2  0  0  0  0
 16 25  2  0  0  0  0
 16 37  1  0  0  0  0
 17 23  2  0  0  0  0
 17 21  1  0  0  0  0
 17 20  1  0  0  0  0
 18 43  1  0  0  0  0
 18 42  1  0  0  0  0
 18 25  1  0  0  0  0
 19 32  1  0  0  0  0
 19 29  2  0  0  0  0
 20 39  1  0  0  0  0
 20 26  1  0  0  0  0
 21 40  1  0  0  0  0
 21 30  1  0  0  0  0
 22 41  1  0  0  0  0
 22 27  1  0  0  0  0
 22 38  1  0  0  0  0
 28 32  1  0  0  0  0
 29 31  1  0  0  0  0
 30 32  1  0  0  0  0
 33 34  2  0  0  0  0
 33 38  1  0  0  0  0
 34 35  1  0  0  0  0
 35 36  2  0  0  0  0
 36 37  1  0  0  0  0
 37 38  2  0  0  0  0
  1 44  1  0  0  0  0
  1 45  1  0  0  0  0
  1 46  1  0  0  0  0
  2 47  1  0  0  0  0
  2 48  1  0  0  0  0
  2 49  1  0  0  0  0
  3 50  1  0  0  0  0
  3 51  1  0  0  0  0
  3 52  1  0  0  0  0
  4 53  1  0  0  0  0
  4 54  1  0  0  0  0
  4 55  1  0  0  0  0
  5 56  1  0  0  0  0
  6 57  1  0  0  0  0
  7 58  1  0  0  0  0
  8 59  1  0  0  0  0
  9 60  1  0  0  0  0
 10 61  1  0  0  0  0
 11 62  1  0  0  0  0
 12 63  1  0  0  0  0
 13 64  1  0  0  0  0
 14 65  1  0  0  0  0
 15 66  1  0  0  0  0
 16 67  1  0  0  0  0
 34 68  1  0  0  0  0
M  END
> <UNIQUE_SMILES>
Cc1cccc(c1)n2nc(cc2NC(=O)Nc3ccc(Nc4ncnc5ccc(N)cc45)cc3)C(C)(C)C

$$$$
