C30H28FN7O3
APtclcactv01052013503D 0   0.00000     0.00000     1
 
 69 73  0  0  0  0  0  0  0  0999 V2000
   -6.8620    6.5050   -3.4350 C   0  0  0  0  0  0  0  0  0  0  0  0
   -6.3390    7.4620   -4.2980 C   0  0  0  0  0  0  0  0  0  0  0  0
   -6.5620    8.8160   -4.0550 C   0  0  0  0  0  0  0  0  0  0  0  0
   -7.3070    9.2100   -2.9500 C   0  0  0  0  0  0  0  0  0  0  0  0
   -7.8290    8.2510   -2.0910 C   0  0  0  0  0  0  0  0  0  0  0  0
   -7.6060    6.9000   -2.3310 C   0  0  0  0  0  0  0  0  0  0  0  0
   -8.2140   10.9270   -1.6760 C   0  0  0  0  0  0  0  0  0  0  0  0
   -7.5160   10.5140   -2.7180 N   0  0  0  0  0  0  0  0  0  0  0  0
   -8.5660    8.6560   -0.9840 C   0  0  0  0  0  0  0  0  0  0  0  0
   -8.7600   10.0160   -0.7770 C   0  0  0  0  0  0  0  0  0  0  0  0
  -10.7410   -3.4890    1.8290 C   0  0  0  0  0  0  0  0  0  0  0  0
  -10.4400   -4.2210    2.8910 N   0  0  0  0  0  0  0  0  0  0  0  0
  -10.2620   -3.6590    4.0950 C   0  0  0  0  0  0  0  0  0  0  0  0
  -10.4030   -2.2880    4.2570 C   0  0  0  0  0  0  0  0  0  0  0  0
  -10.7300   -1.4990    3.1640 C   0  0  0  0  0  0  0  0  0  0  0  0
  -10.8890   -2.1090    1.9270 C   0  0  0  0  0  0  0  0  0  0  0  0
   -9.1670    1.2350    0.4880 C   0  0  0  0  0  0  0  0  0  0  0  0
   -9.5700    0.3230    1.4570 C   0  0  0  0  0  0  0  0  0  0  0  0
  -10.6180    0.6370    2.3160 C   0  0  0  0  0  0  0  0  0  0  0  0
  -11.2720    1.8570    2.1920 C   0  0  0  0  0  0  0  0  0  0  0  0
  -10.8620    2.7690    1.2300 C   0  0  0  0  0  0  0  0  0  0  0  0
   -9.8060    2.4660    0.3810 C   0  0  0  0  0  0  0  0  0  0  0  0
   -5.6760    3.4950   -4.3110 C   0  0  0  0  0  0  0  0  0  0  0  0
   -6.4510    3.0890   -3.3080 C   0  0  0  0  0  0  0  0  0  0  0  0
   -7.0340    4.2100   -2.8950 C   0  0  0  0  0  0  0  0  0  0  0  0
   -6.5840    5.2180   -3.6390 N   0  0  0  0  0  0  0  0  0  0  0  0
   -5.7950    4.8100   -4.4880 N   0  0  0  0  0  0  0  0  0  0  0  0
   -8.0060    4.2870   -1.9920 N   0  0  0  0  0  0  0  0  0  0  0  0
   -8.3600    3.2260   -1.2760 C   0  0  0  0  0  0  0  0  0  0  0  0
   -9.3580    3.4270   -0.4220 N   0  0  0  0  0  0  0  0  0  0  0  0
   -7.7890    2.1440   -1.3820 O   0  0  0  0  0  0  0  0  0  0  0  0
  -10.9630   -0.1740    3.3530 O   0  0  0  0  0  0  0  0  0  0  0  0
   -9.9660   -4.5210    5.3230 C   0  0  0  0  0  0  0  0  0  0  0  0
   -9.5570   -4.0120    6.3660 O   0  0  0  0  0  0  0  0  0  0  0  0
  -10.1580   -5.8280    5.1660 N   0  0  0  0  0  0  0  0  0  0  0  0
   -9.8850   -6.6830    6.3340 C   0  0  0  0  0  0  0  0  0  0  0  0
   -4.7860    2.5840   -5.1610 C   0  0  0  0  0  0  0  0  0  0  0  0
   -5.6700    1.5450   -5.8520 C   0  0  0  0  0  0  0  0  0  0  0  0
   -3.7730    1.8950   -4.2470 C   0  0  0  0  0  0  0  0  0  0  0  0
   -4.0660    3.4430   -6.2000 C   0  0  0  0  0  0  0  0  0  0  0  0
  -11.5030    3.9470    1.1130 F   0  0  0  0  0  0  0  0  0  0  0  0
   -8.4760    5.1620   -1.8710 H   0  0  0  0  0  0  0  0  0  0  0  0
   -9.7980    4.3220   -0.3680 H   0  0  0  0  0  0  0  0  0  0  0  0
  -10.4680   -6.2380    4.3050 H   0  0  0  0  0  0  0  0  0  0  0  0
   -5.7478    7.1474   -5.1744 H   0  0  0  0  0  0  0  0  0  0  0  0
   -6.1483    9.5768   -4.7381 H   0  0  0  0  0  0  0  0  0  0  0  0
   -8.0195    6.1413   -1.6454 H   0  0  0  0  0  0  0  0  0  0  0  0
   -8.3391   12.0165   -1.5583 H   0  0  0  0  0  0  0  0  0  0  0  0
   -8.9877    7.9143   -0.2850 H   0  0  0  0  0  0  0  0  0  0  0  0
   -9.3412   10.3686    0.0916 H   0  0  0  0  0  0  0  0  0  0  0  0
  -10.8672   -4.0234    0.8724 H   0  0  0  0  0  0  0  0  0  0  0  0
  -10.2560   -1.8281    5.2487 H   0  0  0  0  0  0  0  0  0  0  0  0
  -11.1294   -1.5061    1.0352 H   0  0  0  0  0  0  0  0  0  0  0  0
   -8.3398    0.9818   -0.1963 H   0  0  0  0  0  0  0  0  0  0  0  0
   -9.0581   -0.6501    1.5443 H   0  0  0  0  0  0  0  0  0  0  0  0
  -12.1169    2.1016    2.8575 H   0  0  0  0  0  0  0  0  0  0  0  0
   -6.5795    2.0671   -2.9132 H   0  0  0  0  0  0  0  0  0  0  0  0
  -10.4751   -6.3210    7.2080 H   0  0  0  0  0  0  0  0  0  0  0  0
   -8.8471   -6.4989    6.6973 H   0  0  0  0  0  0  0  0  0  0  0  0
  -10.0459   -7.7785    6.2024 H   0  0  0  0  0  0  0  0  0  0  0  0
   -6.4935    2.0098   -6.4428 H   0  0  0  0  0  0  0  0  0  0  0  0
   -6.3013    0.9742   -5.1316 H   0  0  0  0  0  0  0  0  0  0  0  0
   -5.0219    0.8816   -6.4710 H   0  0  0  0  0  0  0  0  0  0  0  0
   -4.2602    1.3500   -3.4051 H   0  0  0  0  0  0  0  0  0  0  0  0
   -3.1834    2.6212   -3.6402 H   0  0  0  0  0  0  0  0  0  0  0  0
   -3.1249    1.2316   -4.8660 H   0  0  0  0  0  0  0  0  0  0  0  0
   -3.5000    4.2865   -5.7402 H   0  0  0  0  0  0  0  0  0  0  0  0
   -4.7700    4.0496   -6.8161 H   0  0  0  0  0  0  0  0  0  0  0  0
   -3.4179    2.7796   -6.8190 H   0  0  0  0  0  0  0  0  0  0  0  0
  1 26  1  0  0  0  0
  1  6  1  0  0  0  0
  1  2  2  0  0  0  0
  2  3  1  0  0  0  0
  3  4  2  0  0  0  0
  4  8  1  0  0  0  0
  4  5  1  0  0  0  0
  5  6  2  0  0  0  0
  5  9  1  0  0  0  0
  7  8  2  0  0  0  0
  7 10  1  0  0  0  0
  9 10  2  0  0  0  0
 11 12  2  0  0  0  0
 11 16  1  0  0  0  0
 12 13  1  0  0  0  0
 13 14  2  0  0  0  0
 13 33  1  0  0  0  0
 14 15  1  0  0  0  0
 15 32  1  0  0  0  0
 15 16  2  0  0  0  0
 17 18  1  0  0  0  0
 17 22  2  0  0  0  0
 18 19  2  0  0  0  0
 19 32  1  0  0  0  0
 19 20  1  0  0  0  0
 20 21  2  0  0  0  0
 21 41  1  0  0  0  0
 21 22  1  0  0  0  0
 22 30  1  0  0  0  0
 23 24  1  0  0  0  0
 23 27  2  0  0  0  0
 23 37  1  0  0  0  0
 24 25  2  0  0  0  0
 25 28  1  0  0  0  0
 25 26  1  0  0  0  0
 26 27  1  0  0  0  0
 28 42  1  0  0  0  0
 28 29  1  0  0  0  0
 29 31  2  0  0  0  0
 29 30  1  0  0  0  0
 30 43  1  0  0  0  0
 33 34  2  0  0  0  0
 33 35  1  0  0  0  0
 35 44  1  0  0  0  0
 35 36  1  0  0  0  0
 37 40  1  0  0  0  0
 37 39  1  0  0  0  0
 37 38  1  0  0  0  0
  2 45  1  0  0  0  0
  3 46  1  0  0  0  0
  6 47  1  0  0  0  0
  7 48  1  0  0  0  0
  9 49  1  0  0  0  0
 10 50  1  0  0  0  0
 11 51  1  0  0  0  0
 14 52  1  0  0  0  0
 16 53  1  0  0  0  0
 17 54  1  0  0  0  0
 18 55  1  0  0  0  0
 20 56  1  0  0  0  0
 24 57  1  0  0  0  0
 36 58  1  0  0  0  0
 36 59  1  0  0  0  0
 36 60  1  0  0  0  0
 38 61  1  0  0  0  0
 38 62  1  0  0  0  0
 38 63  1  0  0  0  0
 39 64  1  0  0  0  0
 39 65  1  0  0  0  0
 39 66  1  0  0  0  0
 40 67  1  0  0  0  0
 40 68  1  0  0  0  0
 40 69  1  0  0  0  0
M  END
> <UNIQUE_SMILES>
CNC(=O)c1cc(Oc2ccc(NC(=O)Nc3cc(nn3c4ccc5ncccc5c4)C(C)(C)C)c(F)c2)ccn1

$$$$
