C21H19FN6O2
APtclcactv01052013513D 0   0.00000     0.00000     1
 
 49 52  0  0  1  0  0  0  0  0999 V2000
   -8.2080    7.1630   -1.9850 C   0  0  0  0  0  0  0  0  0  0  0  0
   -8.7200    7.8410   -0.8830 C   0  0  0  0  0  0  0  0  0  0  0  0
   -8.5880    9.1730   -0.7870 N   0  0  0  0  0  0  0  0  0  0  0  0
   -7.9880    9.8770   -1.7290 C   0  0  0  0  0  0  0  0  0  0  0  0
   -7.4550    9.2590   -2.8540 C   0  0  0  0  0  0  0  0  0  0  0  0
   -7.5650    7.8800   -2.9890 C   0  0  0  0  0  0  0  0  0  0  0  0
   -8.3790    5.8160   -2.0830 O   0  0  0  0  0  0  0  0  0  0  0  0
   -8.3950    5.3960   -3.4530 C   0  0  2  0  0  0  0  0  0  0  0  0
   -9.3850    4.2450   -3.6270 C   0  0  0  0  0  0  0  0  0  0  0  0
   -6.9910    4.9330   -3.8460 C   0  0  0  0  0  0  0  0  0  0  0  0
   -6.4300    5.3280   -5.0570 C   0  0  0  0  0  0  0  0  0  0  0  0
   -5.1490    4.9110   -5.3970 C   0  0  0  0  0  0  0  0  0  0  0  0
   -4.4250    4.1050   -4.5250 C   0  0  0  0  0  0  0  0  0  0  0  0
   -4.9870    3.7100   -3.3190 C   0  0  0  0  0  0  0  0  0  0  0  0
   -6.2700    4.1180   -2.9830 C   0  0  0  0  0  0  0  0  0  0  0  0
   -9.3240    7.1630    0.0870 N   0  0  0  0  0  0  0  0  0  0  0  0
   -6.8470   10.0300   -3.8390 C   0  0  0  0  0  0  0  0  0  0  0  0
   -6.7610   11.3980   -4.0670 C   0  0  0  0  0  0  0  0  0  0  0  0
   -6.0140   11.5630   -5.1510 N   0  0  0  0  0  0  0  0  0  0  0  0
   -5.6360   10.4870   -5.6130 N   0  0  0  0  0  0  0  0  0  0  0  0
   -6.1010    9.4800   -4.8730 C   0  0  0  0  0  0  0  0  0  0  0  0
   -7.4050   12.3800   -3.2460 C   0  0  0  0  0  0  0  0  0  0  0  0
   -7.9190   13.1630   -2.5980 N   0  0  0  0  0  0  0  0  0  0  0  0
   -5.6830   12.8780   -5.7350 C   0  0  0  0  0  0  0  0  0  0  0  0
   -6.9140    7.4800   -6.0300 N   0  0  0  0  0  0  0  0  0  0  0  0
   -7.2370    6.1910   -6.0260 C   0  0  0  0  0  0  0  0  0  0  0  0
   -5.8620    7.9900   -5.1400 C   0  0  0  0  0  0  0  0  0  0  0  0
   -7.6740    8.3240   -6.9600 C   0  0  0  0  0  0  0  0  0  0  0  0
   -8.1130    5.7000   -6.7350 O   0  0  0  0  0  0  0  0  0  0  0  0
   -4.2870    2.9230   -2.4770 F   0  0  0  0  0  0  0  0  0  0  0  0
   -9.6910    7.6460    0.8810 H   0  0  0  0  0  0  0  0  0  0  0  0
   -9.4130    6.1710    0.0190 H   0  0  0  0  0  0  0  0  0  0  0  0
   -7.9327   10.9682   -1.5779 H   0  0  0  0  0  0  0  0  0  0  0  0
   -7.1513    7.3662   -3.8730 H   0  0  0  0  0  0  0  0  0  0  0  0
   -8.7079    6.2451   -4.1044 H   0  0  0  0  0  0  0  0  0  0  0  0
  -10.4033    4.5072   -3.2562 H   0  0  0  0  0  0  0  0  0  0  0  0
   -9.1732    3.4000   -2.9311 H   0  0  0  0  0  0  0  0  0  0  0  0
   -9.3975    3.9182   -4.6930 H   0  0  0  0  0  0  0  0  0  0  0  0
   -4.7068    5.2198   -6.3591 H   0  0  0  0  0  0  0  0  0  0  0  0
   -3.4051    3.7790   -4.7899 H   0  0  0  0  0  0  0  0  0  0  0  0
   -6.7175    3.7939   -2.0283 H   0  0  0  0  0  0  0  0  0  0  0  0
   -5.2218   13.4889   -4.9242 H   0  0  0  0  0  0  0  0  0  0  0  0
   -6.6477   13.4058   -5.9195 H   0  0  0  0  0  0  0  0  0  0  0  0
   -5.0552   13.0167   -6.6460 H   0  0  0  0  0  0  0  0  0  0  0  0
   -5.7833    7.3995   -4.1975 H   0  0  0  0  0  0  0  0  0  0  0  0
   -4.8395    7.7910   -5.5375 H   0  0  0  0  0  0  0  0  0  0  0  0
   -8.7670    8.2064   -6.7737 H   0  0  0  0  0  0  0  0  0  0  0  0
   -7.6029    7.9109   -7.9932 H   0  0  0  0  0  0  0  0  0  0  0  0
   -7.4030    9.4056   -6.9634 H   0  0  0  0  0  0  0  0  0  0  0  0
  1  7  1  0  0  0  0
  1  6  2  0  0  0  0
  1  2  1  0  0  0  0
  2 16  1  0  0  0  0
  2  3  2  0  0  0  0
  3  4  1  0  0  0  0
  4  5  2  0  0  0  0
  5  6  1  0  0  0  0
  5 17  1  0  0  0  0
  7  8  1  0  0  0  0
  8  9  1  0  0  0  0
  8 10  1  0  0  0  0
 10 15  1  0  0  0  0
 10 11  2  0  0  0  0
 11 12  1  0  0  0  0
 11 26  1  0  0  0  0
 12 13  2  0  0  0  0
 13 14  1  0  0  0  0
 14 30  1  0  0  0  0
 14 15  2  0  0  0  0
 16 32  1  0  0  0  0
 16 31  1  0  0  0  0
 17 21  1  0  0  0  0
 17 18  2  0  0  0  0
 18 19  1  0  0  0  0
 18 22  1  0  0  0  0
 19 20  1  0  0  0  0
 19 24  1  0  0  0  0
 20 21  2  0  0  0  0
 21 27  1  0  0  0  0
 22 23  3  0  0  0  0
 25 26  1  0  0  0  0
 25 28  1  0  0  0  0
 25 27  1  0  0  0  0
 26 29  2  0  0  0  0
  4 33  1  0  0  0  0
  6 34  1  0  0  0  0
  8 35  1  0  0  0  0
  9 36  1  0  0  0  0
  9 37  1  0  0  0  0
  9 38  1  0  0  0  0
 12 39  1  0  0  0  0
 13 40  1  0  0  0  0
 15 41  1  0  0  0  0
 24 42  1  0  0  0  0
 24 43  1  0  0  0  0
 24 44  1  0  0  0  0
 27 45  1  0  0  0  0
 27 46  1  0  0  0  0
 28 47  1  0  0  0  0
 28 48  1  0  0  0  0
 28 49  1  0  0  0  0
M  END
> <UNIQUE_SMILES>
CC1Oc2cc(cnc2N)c3c(CN(C)C(=O)c4ccc(F)cc14)nn(C)c3C#N

$$$$
