C28H43N5O3
APtclcactv01052013533D 0   0.00000     0.00000     1
 
 79 82  0  0  0  0  0  0  0  0999 V2000
    9.5510    5.0660    7.6600 C   0  0  0  0  0  0  0  0  0  0  0  0
    9.2910   11.1750    8.3030 C   0  0  0  0  0  0  0  0  0  0  0  0
   10.9380    3.6890    1.1390 C   0  0  0  0  0  0  0  0  0  0  0  0
   11.0920    6.2510    1.6120 C   0  0  0  0  0  0  0  0  0  0  0  0
    9.6790    0.5490    5.2790 C   0  0  0  0  0  0  0  0  0  0  0  0
   11.0860    3.1170    4.3030 C   0  0  0  0  0  0  0  0  0  0  0  0
    9.4920    8.2870    4.1190 C   0  0  0  0  0  0  0  0  0  0  0  0
    8.7730    5.5040    5.1430 C   0  0  0  0  0  0  0  0  0  0  0  0
    9.8890   11.2920    6.8970 C   0  0  0  0  0  0  0  0  0  0  0  0
    9.3820   10.1730    5.9840 C   0  0  0  0  0  0  0  0  0  0  0  0
    7.5560   13.8950   11.4460 C   0  0  0  0  0  0  0  0  0  0  0  0
    7.6170   11.0720    9.6710 C   0  0  0  0  0  0  0  0  0  0  0  0
    7.9030   12.8060    7.8800 C   0  0  0  0  0  0  0  0  0  0  0  0
    6.5990   12.0720   10.2220 C   0  0  0  0  0  0  0  0  0  0  0  0
    8.1910   13.5980    9.1550 C   0  0  0  0  0  0  0  0  0  0  0  0
   11.8320    1.8650    4.7670 C   0  0  0  0  0  0  0  0  0  0  0  0
   11.1980    0.7150    5.2250 C   0  0  0  0  0  0  0  0  0  0  0  0
    9.0300    1.5700    4.3390 C   0  0  0  0  0  0  0  0  0  0  0  0
   11.2530    2.7590    0.5620 N   0  0  0  0  0  0  0  0  0  0  0  0
   10.0510    7.2040    2.0220 N   0  0  0  0  0  0  0  0  0  0  0  0
    8.9970    3.5090    3.0510 N   0  0  0  0  0  0  0  0  0  0  0  0
    9.2040    6.4270    7.4090 O   0  0  0  0  0  0  0  0  0  0  0  0
    9.7790    8.8990    6.5050 O   0  0  0  0  0  0  0  0  0  0  0  0
   10.5390    4.8500    1.8720 C   0  0  0  0  0  0  0  0  0  0  0  0
    9.6620    2.7250    3.8970 C   0  0  0  0  0  0  0  0  0  0  0  0
    9.1640    6.6560    6.0700 C   0  0  0  0  0  0  0  0  0  0  0  0
    9.4750    7.9260    5.6050 C   0  0  0  0  0  0  0  0  0  0  0  0
    9.6100    4.6770    2.8860 C   0  0  0  0  0  0  0  0  0  0  0  0
    9.6530    7.0200    3.2790 C   0  0  0  0  0  0  0  0  0  0  0  0
    9.3630    5.7410    3.7480 C   0  0  0  0  0  0  0  0  0  0  0  0
    7.8360   11.3880    8.2530 N   0  3  0  0  0  0  0  0  0  0  0  0
    7.0950   13.4520   10.1230 N   0  3  0  0  0  0  0  0  0  0  0  0
   12.1820   -0.6000    5.7650 C   0  0  0  0  0  0  0  0  0  0  0  0
    7.4190    1.2580    3.7850 C   0  0  0  0  0  0  0  0  0  0  0  0
   13.6470    2.6990    3.6540 C   0  0  0  0  0  0  0  0  0  0  0  0
   13.1930    1.8700    4.7290 O   0  0  0  0  0  0  0  0  0  0  0  0
    7.6640   10.6690    7.5790 H   0  0  0  0  0  0  0  0  0  0  0  0
    6.3310   14.0360    9.8520 H   0  0  0  0  0  0  0  0  0  0  0  0
    9.2630    7.1330    1.4060 H   0  0  0  0  0  0  0  0  0  0  0  0
    8.0690    3.6580    3.3930 H   0  0  0  0  0  0  0  0  0  0  0  0
   10.5039    4.7779    7.1578 H   0  0  0  0  0  0  0  0  0  0  0  0
    8.8695    4.3569    7.1346 H   0  0  0  0  0  0  0  0  0  0  0  0
    9.5838    4.8781    8.7586 H   0  0  0  0  0  0  0  0  0  0  0  0
    9.5545   10.2068    8.7892 H   0  0  0  0  0  0  0  0  0  0  0  0
    9.7886   11.8621    9.0265 H   0  0  0  0  0  0  0  0  0  0  0  0
   12.0740    6.4340    2.1073 H   0  0  0  0  0  0  0  0  0  0  0  0
   11.4337    6.3998    0.5611 H   0  0  0  0  0  0  0  0  0  0  0  0
    9.2816    0.6172    6.3186 H   0  0  0  0  0  0  0  0  0  0  0  0
    9.3584   -0.4956    5.0570 H   0  0  0  0  0  0  0  0  0  0  0  0
   11.6261    3.6571    3.4907 H   0  0  0  0  0  0  0  0  0  0  0  0
   11.1019    3.9289    5.0670 H   0  0  0  0  0  0  0  0  0  0  0  0
    8.5935    8.8761    3.8207 H   0  0  0  0  0  0  0  0  0  0  0  0
   10.2710    9.0487    3.8818 H   0  0  0  0  0  0  0  0  0  0  0  0
    7.6697    5.3463    5.1112 H   0  0  0  0  0  0  0  0  0  0  0  0
    9.0651    4.5119    5.5596 H   0  0  0  0  0  0  0  0  0  0  0  0
   11.0032   11.3231    6.9270 H   0  0  0  0  0  0  0  0  0  0  0  0
    9.7017   12.2982    6.4546 H   0  0  0  0  0  0  0  0  0  0  0  0
    9.7108   10.3137    4.9279 H   0  0  0  0  0  0  0  0  0  0  0  0
    8.2807   10.2332    5.8208 H   0  0  0  0  0  0  0  0  0  0  0  0
    8.3129   13.2034   11.8842 H   0  0  0  0  0  0  0  0  0  0  0  0
    6.7692   13.7829   12.2280 H   0  0  0  0  0  0  0  0  0  0  0  0
    7.9323   14.9419   11.3709 H   0  0  0  0  0  0  0  0  0  0  0  0
    8.5634   11.0493   10.2601 H   0  0  0  0  0  0  0  0  0  0  0  0
    7.3144   10.0116    9.8360 H   0  0  0  0  0  0  0  0  0  0  0  0
    6.9916   13.1594    7.3437 H   0  0  0  0  0  0  0  0  0  0  0  0
    8.6372   13.0085    7.0657 H   0  0  0  0  0  0  0  0  0  0  0  0
    6.3015   11.8187   11.2663 H   0  0  0  0  0  0  0  0  0  0  0  0
    5.6060   11.9583    9.7278 H   0  0  0  0  0  0  0  0  0  0  0  0
    8.4052   14.6697    8.9343 H   0  0  0  0  0  0  0  0  0  0  0  0
    9.1738   13.3175    9.6006 H   0  0  0  0  0  0  0  0  0  0  0  0
   11.8961   -1.5222    5.2072 H   0  0  0  0  0  0  0  0  0  0  0  0
   11.8823   -0.8773    6.8026 H   0  0  0  0  0  0  0  0  0  0  0  0
   13.2897   -0.4789    5.7256 H   0  0  0  0  0  0  0  0  0  0  0  0
    6.7544    1.0987    4.6660 H   0  0  0  0  0  0  0  0  0  0  0  0
    7.3854    0.2504    3.3088 H   0  0  0  0  0  0  0  0  0  0  0  0
    6.9467    2.0011    3.1009 H   0  0  0  0  0  0  0  0  0  0  0  0
   13.2260    3.7298    3.7136 H   0  0  0  0  0  0  0  0  0  0  0  0
   13.2020    2.3985    2.6768 H   0  0  0  0  0  0  0  0  0  0  0  0
   14.7616    2.7031    3.6229 H   0  0  0  0  0  0  0  0  0  0  0  0
  1 22  1  0  0  0  0
  2 31  1  0  0  0  0
  2  9  1  0  0  0  0
  3 19  3  0  0  0  0
  3 24  1  0  0  0  0
  4 20  1  0  0  0  0
  4 24  1  0  0  0  0
  5 17  1  0  0  0  0
  5 18  1  0  0  0  0
  6 16  1  0  0  0  0
  6 25  1  0  0  0  0
  7 29  1  0  0  0  0
  7 27  1  0  0  0  0
  8 26  1  0  0  0  0
  8 30  1  0  0  0  0
  9 10  1  0  0  0  0
 10 23  1  0  0  0  0
 11 32  1  0  0  0  0
 12 31  1  0  0  0  0
 12 14  1  0  0  0  0
 13 31  1  0  0  0  0
 13 15  1  0  0  0  0
 14 32  1  0  0  0  0
 15 32  1  0  0  0  0
 16 36  1  0  0  0  0
 16 17  2  0  0  0  0
 17 33  1  0  0  0  0
 18 25  2  0  0  0  0
 18 34  1  0  0  0  0
 20 39  1  0  0  0  0
 20 29  1  0  0  0  0
 21 40  1  0  0  0  0
 21 28  1  0  0  0  0
 21 25  1  0  0  0  0
 22 26  1  0  0  0  0
 23 27  1  0  0  0  0
 24 28  2  0  0  0  0
 26 27  2  0  0  0  0
 28 30  1  0  0  0  0
 29 30  2  0  0  0  0
 31 37  1  0  0  0  0
 32 38  1  0  0  0  0
 35 36  1  0  0  0  0
  1 41  1  0  0  0  0
  1 42  1  0  0  0  0
  1 43  1  0  0  0  0
  2 44  1  0  0  0  0
  2 45  1  0  0  0  0
  4 46  1  0  0  0  0
  4 47  1  0  0  0  0
  5 48  1  0  0  0  0
  5 49  1  0  0  0  0
  6 50  1  0  0  0  0
  6 51  1  0  0  0  0
  7 52  1  0  0  0  0
  7 53  1  0  0  0  0
  8 54  1  0  0  0  0
  8 55  1  0  0  0  0
  9 56  1  0  0  0  0
  9 57  1  0  0  0  0
 10 58  1  0  0  0  0
 10 59  1  0  0  0  0
 11 60  1  0  0  0  0
 11 61  1  0  0  0  0
 11 62  1  0  0  0  0
 12 63  1  0  0  0  0
 12 64  1  0  0  0  0
 13 65  1  0  0  0  0
 13 66  1  0  0  0  0
 14 67  1  0  0  0  0
 14 68  1  0  0  0  0
 15 69  1  0  0  0  0
 15 70  1  0  0  0  0
 33 71  1  0  0  0  0
 33 72  1  0  0  0  0
 33 73  1  0  0  0  0
 34 74  1  0  0  0  0
 34 75  1  0  0  0  0
 34 76  1  0  0  0  0
 35 77  1  0  0  0  0
 35 78  1  0  0  0  0
 35 79  1  0  0  0  0
M  CHG  2  31   1  32   1
M  END
> <UNIQUE_SMILES>
COC1=C(C)CC(=C(C1)NC2=C(CNC3=C2CC(=C(C3)OCCC[NH+]4CC[NH+](C)CC4)OC)C#N)C

$$$$
