C28H43N5O3
APtclcactv01052013573D 0   0.00000     0.00000     1
 
 79 82  0  0  0  0  0  0  0  0999 V2000
    9.2780    7.1590    9.3200 C   0  0  0  0  0  0  0  0  0  0  0  0
    6.8490   12.4970    8.3460 C   0  0  0  0  0  0  0  0  0  0  0  0
   10.9930    4.7360    2.4220 C   0  0  0  0  0  0  0  0  0  0  0  0
    9.9560    7.1050    2.3900 C   0  0  0  0  0  0  0  0  0  0  0  0
    8.1410    2.1970    3.9480 C   0  0  0  0  0  0  0  0  0  0  0  0
   11.2340    2.5300    4.1510 C   0  0  0  0  0  0  0  0  0  0  0  0
    8.9900    9.2760    5.0250 C   0  0  0  0  0  0  0  0  0  0  0  0
    9.7300    6.8490    6.7150 C   0  0  0  0  0  0  0  0  0  0  0  0
    7.0680   12.3880    6.8360 C   0  0  0  0  0  0  0  0  0  0  0  0
    8.1440   11.3590    6.4970 C   0  0  0  0  0  0  0  0  0  0  0  0
    7.0910   16.0710   11.5560 C   0  0  0  0  0  0  0  0  0  0  0  0
    5.7580   13.2710   10.0680 C   0  0  0  0  0  0  0  0  0  0  0  0
    6.5460   14.6450    8.1250 C   0  0  0  0  0  0  0  0  0  0  0  0
    5.3900   14.6020   10.7260 C   0  0  0  0  0  0  0  0  0  0  0  0
    7.3000   15.2190    9.3250 C   0  0  0  0  0  0  0  0  0  0  0  0
   10.5330    1.5290    3.2290 C   0  0  0  0  0  0  0  0  0  0  0  0
    9.1530    1.3920    3.1280 C   0  0  0  0  0  0  0  0  0  0  0  0
    8.8430    3.3450    4.6760 C   0  0  0  0  0  0  0  0  0  0  0  0
   11.4560    3.8520    1.8720 N   0  0  0  0  0  0  0  0  0  0  0  0
    8.8610    7.6940    3.1710 N   0  0  0  0  0  0  0  0  0  0  0  0
   10.6940    4.6910    5.1660 N   0  0  0  0  0  0  0  0  0  0  0  0
    8.3770    7.9090    8.5040 O   0  0  0  0  0  0  0  0  0  0  0  0
    7.7720   10.0840    7.0350 O   0  0  0  0  0  0  0  0  0  0  0  0
   10.4140    5.8420    3.1100 C   0  0  0  0  0  0  0  0  0  0  0  0
   10.2180    3.5530    4.6690 C   0  0  0  0  0  0  0  0  0  0  0  0
    8.8620    7.9910    7.2390 C   0  0  0  0  0  0  0  0  0  0  0  0
    8.5410    9.1110    6.4780 C   0  0  0  0  0  0  0  0  0  0  0  0
   10.2690    5.7530    4.4900 C   0  0  0  0  0  0  0  0  0  0  0  0
    9.2110    7.8820    4.4400 C   0  0  0  0  0  0  0  0  0  0  0  0
    9.7260    6.8260    5.1840 C   0  0  0  0  0  0  0  0  0  0  0  0
    5.7940   13.4840    8.6140 N   0  3  0  0  0  0  0  0  0  0  0  0
    6.3490   15.6550   10.3580 N   0  3  0  0  0  0  0  0  0  0  0  0
    8.5360    0.2330    2.0010 C   0  0  0  0  0  0  0  0  0  0  0  0
    7.8530    4.4470    5.5680 C   0  0  0  0  0  0  0  0  0  0  0  0
   12.5240    1.3930    2.1200 C   0  0  0  0  0  0  0  0  0  0  0  0
   11.3070    0.7180    2.4570 O   0  0  0  0  0  0  0  0  0  0  0  0
    5.1000   13.0240    8.0590 H   0  0  0  0  0  0  0  0  0  0  0  0
    5.8320   16.4430   10.0240 H   0  0  0  0  0  0  0  0  0  0  0  0
    8.0570    7.1040    3.1270 H   0  0  0  0  0  0  0  0  0  0  0  0
   11.6920    4.6650    5.1630 H   0  0  0  0  0  0  0  0  0  0  0  0
   10.3123    7.5746    9.2937 H   0  0  0  0  0  0  0  0  0  0  0  0
    9.4966    6.1542    8.8889 H   0  0  0  0  0  0  0  0  0  0  0  0
    8.8796    7.0916   10.3592 H   0  0  0  0  0  0  0  0  0  0  0  0
    6.6315   11.5085    8.8138 H   0  0  0  0  0  0  0  0  0  0  0  0
    7.7922   12.7274    8.8942 H   0  0  0  0  0  0  0  0  0  0  0  0
   10.7887    7.8225    2.2026 H   0  0  0  0  0  0  0  0  0  0  0  0
    9.6782    6.9201    1.3261 H   0  0  0  0  0  0  0  0  0  0  0  0
    7.2917    2.5583    3.3224 H   0  0  0  0  0  0  0  0  0  0  0  0
    7.5648    1.5497    4.6496 H   0  0  0  0  0  0  0  0  0  0  0  0
   12.1061    3.0176    3.6561 H   0  0  0  0  0  0  0  0  0  0  0  0
   11.7818    2.0249    4.9805 H   0  0  0  0  0  0  0  0  0  0  0  0
    8.2819    9.8904    4.4213 H   0  0  0  0  0  0  0  0  0  0  0  0
    9.8838    9.9345    4.9214 H   0  0  0  0  0  0  0  0  0  0  0  0
    9.4239    5.8665    7.1441 H   0  0  0  0  0  0  0  0  0  0  0  0
   10.7658    6.8951    7.1251 H   0  0  0  0  0  0  0  0  0  0  0  0
    7.2980   13.3815    6.3850 H   0  0  0  0  0  0  0  0  0  0  0  0
    6.1142   12.1713    6.3007 H   0  0  0  0  0  0  0  0  0  0  0  0
    9.1563   11.6804    6.8362 H   0  0  0  0  0  0  0  0  0  0  0  0
    8.3508   11.3105    5.4024 H   0  0  0  0  0  0  0  0  0  0  0  0
    7.5818   15.2118   12.0699 H   0  0  0  0  0  0  0  0  0  0  0  0
    6.4150   16.3847   12.3853 H   0  0  0  0  0  0  0  0  0  0  0  0
    7.8179   16.8691   11.2771 H   0  0  0  0  0  0  0  0  0  0  0  0
    6.7058   12.8390   10.4657 H   0  0  0  0  0  0  0  0  0  0  0  0
    5.0794   12.4383   10.3668 H   0  0  0  0  0  0  0  0  0  0  0  0
    5.9061   15.3970    7.6071 H   0  0  0  0  0  0  0  0  0  0  0  0
    7.2099   14.4069    7.2614 H   0  0  0  0  0  0  0  0  0  0  0  0
    5.2944   14.5013   11.8323 H   0  0  0  0  0  0  0  0  0  0  0  0
    4.3415   14.9005   10.4918 H   0  0  0  0  0  0  0  0  0  0  0  0
    7.9968   16.0370    9.0275 H   0  0  0  0  0  0  0  0  0  0  0  0
    8.0526   14.5012    9.7270 H   0  0  0  0  0  0  0  0  0  0  0  0
    7.8215    0.7375    1.3095 H   0  0  0  0  0  0  0  0  0  0  0  0
    7.8531   -0.4694    2.5334 H   0  0  0  0  0  0  0  0  0  0  0  0
    9.2729   -0.3532    1.4039 H   0  0  0  0  0  0  0  0  0  0  0  0
    7.2281    3.8767    6.2943 H   0  0  0  0  0  0  0  0  0  0  0  0
    7.0659    4.8625    4.8964 H   0  0  0  0  0  0  0  0  0  0  0  0
    8.3646    5.2837    6.0986 H   0  0  0  0  0  0  0  0  0  0  0  0
   13.0670    1.7568    3.0234 H   0  0  0  0  0  0  0  0  0  0  0  0
   12.3372    2.3803    1.6367 H   0  0  0  0  0  0  0  0  0  0  0  0
   13.1580    0.7287    1.4876 H   0  0  0  0  0  0  0  0  0  0  0  0
  1 22  1  0  0  0  0
  2 31  1  0  0  0  0
  2  9  1  0  0  0  0
  3 19  3  0  0  0  0
  3 24  1  0  0  0  0
  4 20  1  0  0  0  0
  4 24  1  0  0  0  0
  5 18  1  0  0  0  0
  5 17  1  0  0  0  0
  6 16  1  0  0  0  0
  6 25  1  0  0  0  0
  7 29  1  0  0  0  0
  7 27  1  0  0  0  0
  8 26  1  0  0  0  0
  8 30  1  0  0  0  0
  9 10  1  0  0  0  0
 10 23  1  0  0  0  0
 11 32  1  0  0  0  0
 12 31  1  0  0  0  0
 12 14  1  0  0  0  0
 13 31  1  0  0  0  0
 13 15  1  0  0  0  0
 14 32  1  0  0  0  0
 15 32  1  0  0  0  0
 16 36  1  0  0  0  0
 16 17  2  0  0  0  0
 17 33  1  0  0  0  0
 18 25  2  0  0  0  0
 18 34  1  0  0  0  0
 20 39  1  0  0  0  0
 20 29  1  0  0  0  0
 21 40  1  0  0  0  0
 21 28  1  0  0  0  0
 21 25  1  0  0  0  0
 22 26  1  0  0  0  0
 23 27  1  0  0  0  0
 24 28  2  0  0  0  0
 26 27  2  0  0  0  0
 28 30  1  0  0  0  0
 29 30  2  0  0  0  0
 31 37  1  0  0  0  0
 32 38  1  0  0  0  0
 35 36  1  0  0  0  0
  1 41  1  0  0  0  0
  1 42  1  0  0  0  0
  1 43  1  0  0  0  0
  2 44  1  0  0  0  0
  2 45  1  0  0  0  0
  4 46  1  0  0  0  0
  4 47  1  0  0  0  0
  5 48  1  0  0  0  0
  5 49  1  0  0  0  0
  6 50  1  0  0  0  0
  6 51  1  0  0  0  0
  7 52  1  0  0  0  0
  7 53  1  0  0  0  0
  8 54  1  0  0  0  0
  8 55  1  0  0  0  0
  9 56  1  0  0  0  0
  9 57  1  0  0  0  0
 10 58  1  0  0  0  0
 10 59  1  0  0  0  0
 11 60  1  0  0  0  0
 11 61  1  0  0  0  0
 11 62  1  0  0  0  0
 12 63  1  0  0  0  0
 12 64  1  0  0  0  0
 13 65  1  0  0  0  0
 13 66  1  0  0  0  0
 14 67  1  0  0  0  0
 14 68  1  0  0  0  0
 15 69  1  0  0  0  0
 15 70  1  0  0  0  0
 33 71  1  0  0  0  0
 33 72  1  0  0  0  0
 33 73  1  0  0  0  0
 34 74  1  0  0  0  0
 34 75  1  0  0  0  0
 34 76  1  0  0  0  0
 35 77  1  0  0  0  0
 35 78  1  0  0  0  0
 35 79  1  0  0  0  0
M  CHG  2  31   1  32   1
M  END
> <UNIQUE_SMILES>
COC1=C(C)CC(=C(C1)NC2=C(CNC3=C2CC(=C(C3)OCCC[NH+]4CC[NH+](C)CC4)OC)C#N)C

$$$$
