C21H22FN6O
APtclcactv01052014013D 0   0.00000     0.00000     1
 
 51 55  0  0  0  0  0  0  0  0999 V2000
   -4.0770  -11.3670   14.2900 C   0  0  0  0  0  0  0  0  0  0  0  0
   -5.0960  -10.7790   13.4090 N   0  3  0  0  0  0  0  0  0  0  0  0
   -4.5400  -10.6470   12.0530 C   0  0  0  0  0  0  0  0  0  0  0  0
   -5.4020   -9.7200   11.1980 C   0  0  0  0  0  0  0  0  0  0  0  0
   -5.3610   -8.3820   11.8300 N   0  0  0  0  0  0  0  0  0  0  0  0
   -4.9280   -8.3050   13.2420 C   0  0  0  0  0  0  0  0  0  0  0  0
   -5.5410   -9.4960   13.9780 C   0  0  0  0  0  0  0  0  0  0  0  0
   -5.7250   -7.2330   11.1150 C   0  0  0  0  0  0  0  0  0  0  0  0
   -6.1210   -7.3420    9.7880 C   0  0  0  0  0  0  0  0  0  0  0  0
   -6.4700   -6.1980    9.0810 C   0  0  0  0  0  0  0  0  0  0  0  0
   -6.8700   -6.0010    7.8270 N   0  0  0  0  0  0  0  0  0  0  0  0
   -7.0570   -4.6950    7.6480 C   0  0  0  0  0  0  0  0  0  0  0  0
   -6.7880   -4.0550    8.7850 N   0  0  0  0  0  0  0  0  0  0  0  0
   -6.4190   -4.9530    9.6940 C   0  0  0  0  0  0  0  0  0  0  0  0
   -6.0230   -4.8470   11.0190 C   0  0  0  0  0  0  0  0  0  0  0  0
   -5.6750   -5.9870   11.7300 C   0  0  0  0  0  0  0  0  0  0  0  0
   -7.4540   -4.1000    6.4530 C   0  0  0  0  0  0  0  0  0  0  0  0
   -7.3030   -2.7320    6.2590 C   0  0  0  0  0  0  0  0  0  0  0  0
   -6.7390   -2.0360    7.2440 N   0  0  0  0  0  0  0  0  0  0  0  0
   -7.7140   -2.1410    5.0670 C   0  0  0  0  0  0  0  0  0  0  0  0
   -7.5610   -0.7800    4.8250 C   0  0  0  0  0  0  0  0  0  0  0  0
   -7.9770   -0.2270    3.6200 C   0  0  0  0  0  0  0  0  0  0  0  0
   -8.5410   -1.0280    2.6340 C   0  0  0  0  0  0  0  0  0  0  0  0
   -8.6920   -2.3870    2.8670 C   0  0  0  0  0  0  0  0  0  0  0  0
   -8.2820   -2.9350    4.0770 C   0  0  0  0  0  0  0  0  0  0  0  0
   -8.4340   -4.3150    4.2650 N   0  3  0  0  0  0  0  0  0  0  0  0
   -8.0190   -4.8990    5.4700 C   0  0  0  0  0  0  0  0  0  0  0  0
   -8.1370   -6.1090    5.6480 O   0  5  0  0  0  0  0  0  0  0  0  0
   -7.0200    0.0510    5.7400 F   0  0  0  0  0  0  0  0  0  0  0  0
   -5.8730  -11.4050   13.3650 H   0  0  0  0  0  0  0  0  0  0  0  0
   -7.0020   -6.7100    7.1340 H   0  0  0  0  0  0  0  0  0  0  0  0
   -8.8490   -4.8750    3.5490 H   0  0  0  0  0  0  0  0  0  0  0  0
   -6.4480   -2.5080    8.0780 H   0  0  0  0  0  0  0  0  0  0  0  0
   -6.5990   -1.0470    7.1760 H   0  0  0  0  0  0  0  0  0  0  0  0
   -3.7817  -12.3957   13.9774 H   0  0  0  0  0  0  0  0  0  0  0  0
   -4.4783  -11.6240   15.2980 H   0  0  0  0  0  0  0  0  0  0  0  0
   -3.2096  -10.6681   14.3391 H   0  0  0  0  0  0  0  0  0  0  0  0
   -4.3976  -11.6407   11.5678 H   0  0  0  0  0  0  0  0  0  0  0  0
   -3.4756  -10.3157   12.0748 H   0  0  0  0  0  0  0  0  0  0  0  0
   -6.4390  -10.1015   11.0483 H   0  0  0  0  0  0  0  0  0  0  0  0
   -5.0985   -9.7065   10.1252 H   0  0  0  0  0  0  0  0  0  0  0  0
   -5.1729   -7.3272   13.7186 H   0  0  0  0  0  0  0  0  0  0  0  0
   -3.8201   -8.2488   13.3540 H   0  0  0  0  0  0  0  0  0  0  0  0
   -5.3369   -9.4451   15.0730 H   0  0  0  0  0  0  0  0  0  0  0  0
   -6.6536   -9.4279   14.0043 H   0  0  0  0  0  0  0  0  0  0  0  0
   -6.1581   -8.3300    9.2991 H   0  0  0  0  0  0  0  0  0  0  0  0
   -5.9849   -3.8582   11.5063 H   0  0  0  0  0  0  0  0  0  0  0  0
   -5.3588   -5.9028   12.7834 H   0  0  0  0  0  0  0  0  0  0  0  0
   -7.8587    0.8556    3.4449 H   0  0  0  0  0  0  0  0  0  0  0  0
   -8.8657   -0.5893    1.6755 H   0  0  0  0  0  0  0  0  0  0  0  0
   -9.1378   -3.0314    2.0907 H   0  0  0  0  0  0  0  0  0  0  0  0
  1  2  1  0  0  0  0
  2 30  1  0  0  0  0
  2  3  1  0  0  0  0
  2  7  1  0  0  0  0
  3  4  1  0  0  0  0
  4  5  1  0  0  0  0
  5  8  1  0  0  0  0
  5  6  1  0  0  0  0
  6  7  1  0  0  0  0
  8  9  1  0  0  0  0
  8 16  2  0  0  0  0
  9 10  2  0  0  0  0
 10 11  1  0  0  0  0
 10 14  1  0  0  0  0
 11 31  1  0  0  0  0
 11 12  1  0  0  0  0
 12 13  2  0  0  0  0
 12 17  1  0  0  0  0
 13 14  1  0  0  0  0
 14 15  2  0  0  0  0
 15 16  1  0  0  0  0
 17 27  1  0  0  0  0
 17 18  2  0  0  0  0
 18 19  1  0  0  0  0
 18 20  1  0  0  0  0
 19 34  1  0  0  0  0
 19 33  1  0  0  0  0
 20 25  2  0  0  0  0
 20 21  1  0  0  0  0
 21 29  1  0  0  0  0
 21 22  2  0  0  0  0
 22 23  1  0  0  0  0
 23 24  2  0  0  0  0
 24 25  1  0  0  0  0
 25 26  1  0  0  0  0
 26 32  1  0  0  0  0
 26 27  2  0  0  0  0
 27 28  1  0  0  0  0
  1 35  1  0  0  0  0
  1 36  1  0  0  0  0
  1 37  1  0  0  0  0
  3 38  1  0  0  0  0
  3 39  1  0  0  0  0
  4 40  1  0  0  0  0
  4 41  1  0  0  0  0
  6 42  1  0  0  0  0
  6 43  1  0  0  0  0
  7 44  1  0  0  0  0
  7 45  1  0  0  0  0
  9 46  1  0  0  0  0
 15 47  1  0  0  0  0
 16 48  1  0  0  0  0
 22 49  1  0  0  0  0
 23 50  1  0  0  0  0
 24 51  1  0  0  0  0
M  CHG  3   2   1  26   1  28  -1
M  END
> <UNIQUE_SMILES>
C[NH+]1CCN(CC1)c2ccc3nc([nH]c3c2)c4c(N)c5c(F)cccc5[nH+]c4[O-]

$$$$
