C24H28N5O3
APtclcactv01052014083D 0   0.00000     0.00000     1
 
 60 63  0  0  0  0  0  0  0  0999 V2000
    4.4060    8.5220   13.5460 C   0  0  0  0  0  0  0  0  0  0  0  0
    4.8270    7.6860   12.4130 N   0  3  0  0  0  0  0  0  0  0  0  0
    5.6830    8.4670   11.5080 C   0  0  0  0  0  0  0  0  0  0  0  0
    6.1320    7.5900   10.3360 C   0  0  0  0  0  0  0  0  0  0  0  0
    6.8820    6.4330   10.8450 N   0  0  0  0  0  0  0  0  0  0  0  0
    6.0290    5.6540   11.7520 C   0  0  0  0  0  0  0  0  0  0  0  0
    5.5870    6.5370   12.9220 C   0  0  0  0  0  0  0  0  0  0  0  0
    7.2680    5.6770    9.8210 C   0  0  0  0  0  0  0  0  0  0  0  0
    8.1500    6.1850    8.8750 C   0  0  0  0  0  0  0  0  0  0  0  0
    8.5360    5.4030    7.7930 C   0  0  0  0  0  0  0  0  0  0  0  0
    8.0420    4.1090    7.6540 C   0  0  0  0  0  0  0  0  0  0  0  0
    7.1640    3.6000    8.6020 C   0  0  0  0  0  0  0  0  0  0  0  0
    6.7770    4.3810    9.6860 C   0  0  0  0  0  0  0  0  0  0  0  0
    8.4040    3.3750    6.6060 N   0  0  0  0  0  0  0  0  0  0  0  0
    7.9220    2.1460    6.4580 C   0  0  0  0  0  0  0  0  0  0  0  0
    7.1310    1.6170    7.2390 O   0  0  0  0  0  0  0  0  0  0  0  0
    8.4110    1.3960    5.2130 C   0  0  0  0  0  0  0  0  0  0  0  0
    8.0040    0.0860    4.9920 C   0  0  0  0  0  0  0  0  0  0  0  0
    8.4340   -0.5830    3.8530 C   0  0  0  0  0  0  0  0  0  0  0  0
    9.2720    0.0400    2.9350 C   0  0  0  0  0  0  0  0  0  0  0  0
    9.6820    1.3590    3.1590 N   0  3  0  0  0  0  0  0  0  0  0  0
    9.2450    2.0370    4.3050 C   0  0  0  0  0  0  0  0  0  0  0  0
    9.6050    3.1970    4.4950 O   0  5  0  0  0  0  0  0  0  0  0  0
    7.2380   -0.5210    5.8950 N   0  0  0  0  0  0  0  0  0  0  0  0
    6.8000   -1.7690    5.7420 C   0  0  0  0  0  0  0  0  0  0  0  0
    7.0860   -2.5090    4.6000 C   0  0  0  0  0  0  0  0  0  0  0  0
    6.5770   -3.7930    4.4470 C   0  0  0  0  0  0  0  0  0  0  0  0
    5.7820   -4.3480    5.4430 C   0  0  0  0  0  0  0  0  0  0  0  0
    5.4980   -3.6140    6.5880 C   0  0  0  0  0  0  0  0  0  0  0  0
    6.0040   -2.3280    6.7340 C   0  0  0  0  0  0  0  0  0  0  0  0
    5.7450   -1.6290    7.8710 O   0  0  0  0  0  0  0  0  0  0  0  0
    6.7500   -1.9110    8.8460 C   0  0  0  0  0  0  0  0  0  0  0  0
    4.0240    7.3560   11.9120 H   0  0  0  0  0  0  0  0  0  0  0  0
    9.0360    3.7760    5.9400 H   0  0  0  0  0  0  0  0  0  0  0  0
    6.9770   -0.0220    6.7200 H   0  0  0  0  0  0  0  0  0  0  0  0
   10.2840    1.8150    2.5060 H   0  0  0  0  0  0  0  0  0  0  0  0
    3.6874    7.9905   14.2126 H   0  0  0  0  0  0  0  0  0  0  0  0
    3.7423    9.3580   13.2240 H   0  0  0  0  0  0  0  0  0  0  0  0
    5.2992    8.8891   14.1033 H   0  0  0  0  0  0  0  0  0  0  0  0
    6.5463    8.9289   12.0414 H   0  0  0  0  0  0  0  0  0  0  0  0
    5.1858    9.4041   11.1646 H   0  0  0  0  0  0  0  0  0  0  0  0
    6.7115    8.1662    9.5774 H   0  0  0  0  0  0  0  0  0  0  0  0
    5.2778    7.2852    9.6874 H   0  0  0  0  0  0  0  0  0  0  0  0
    6.5252    4.7165   12.0957 H   0  0  0  0  0  0  0  0  0  0  0  0
    5.1634    5.1914   11.2228 H   0  0  0  0  0  0  0  0  0  0  0  0
    5.0177    5.9633   13.6901 H   0  0  0  0  0  0  0  0  0  0  0  0
    6.4460    6.8504   13.5601 H   0  0  0  0  0  0  0  0  0  0  0  0
    8.5439    7.2096    8.9830 H   0  0  0  0  0  0  0  0  0  0  0  0
    9.2354    5.8099    7.0435 H   0  0  0  0  0  0  0  0  0  0  0  0
    6.7735    2.5741    8.4938 H   0  0  0  0  0  0  0  0  0  0  0  0
    6.0811    3.9728   10.4382 H   0  0  0  0  0  0  0  0  0  0  0  0
    8.1062   -1.6211    3.6754 H   0  0  0  0  0  0  0  0  0  0  0  0
    9.6082   -0.5067    2.0380 H   0  0  0  0  0  0  0  0  0  0  0  0
    7.7211   -2.0744    3.8099 H   0  0  0  0  0  0  0  0  0  0  0  0
    6.8039   -4.3713    3.5356 H   0  0  0  0  0  0  0  0  0  0  0  0
    5.3778   -5.3675    5.3252 H   0  0  0  0  0  0  0  0  0  0  0  0
    4.8703   -4.0526    7.3818 H   0  0  0  0  0  0  0  0  0  0  0  0
    7.7777   -1.7183    8.4587 H   0  0  0  0  0  0  0  0  0  0  0  0
    6.8540   -3.0043    9.0388 H   0  0  0  0  0  0  0  0  0  0  0  0
    6.5376   -1.3377    9.7785 H   0  0  0  0  0  0  0  0  0  0  0  0
  1  2  1  0  0  0  0
  2 33  1  0  0  0  0
  2  7  1  0  0  0  0
  2  3  1  0  0  0  0
  3  4  1  0  0  0  0
  4  5  1  0  0  0  0
  5  8  1  0  0  0  0
  5  6  1  0  0  0  0
  6  7  1  0  0  0  0
  8  9  1  0  0  0  0
  8 13  2  0  0  0  0
  9 10  2  0  0  0  0
 10 11  1  0  0  0  0
 11 14  1  0  0  0  0
 11 12  2  0  0  0  0
 12 13  1  0  0  0  0
 14 34  1  0  0  0  0
 14 15  1  0  0  0  0
 15 16  2  0  0  0  0
 15 17  1  0  0  0  0
 17 18  1  0  0  0  0
 17 22  2  0  0  0  0
 18 24  1  0  0  0  0
 18 19  2  0  0  0  0
 19 20  1  0  0  0  0
 20 21  2  0  0  0  0
 21 36  1  0  0  0  0
 21 22  1  0  0  0  0
 22 23  1  0  0  0  0
 24 35  1  0  0  0  0
 24 25  1  0  0  0  0
 25 30  1  0  0  0  0
 25 26  2  0  0  0  0
 26 27  1  0  0  0  0
 27 28  2  0  0  0  0
 28 29  1  0  0  0  0
 29 30  2  0  0  0  0
 30 31  1  0  0  0  0
 31 32  1  0  0  0  0
  1 37  1  0  0  0  0
  1 38  1  0  0  0  0
  1 39  1  0  0  0  0
  3 40  1  0  0  0  0
  3 41  1  0  0  0  0
  4 42  1  0  0  0  0
  4 43  1  0  0  0  0
  6 44  1  0  0  0  0
  6 45  1  0  0  0  0
  7 46  1  0  0  0  0
  7 47  1  0  0  0  0
  9 48  1  0  0  0  0
 10 49  1  0  0  0  0
 12 50  1  0  0  0  0
 13 51  1  0  0  0  0
 19 52  1  0  0  0  0
 20 53  1  0  0  0  0
 26 54  1  0  0  0  0
 27 55  1  0  0  0  0
 28 56  1  0  0  0  0
 29 57  1  0  0  0  0
 32 58  1  0  0  0  0
 32 59  1  0  0  0  0
 32 60  1  0  0  0  0
M  CHG  3   2   1  21   1  23  -1
M  END
> <UNIQUE_SMILES>
COc1ccccc1Nc2cc[nH+]c([O-])c2C(=O)Nc3ccc(cc3)N4CC[NH+](C)CC4

$$$$
