@<TRIPOS>MOLECULE
4cli_Lig.pdb
 30 33 0 0 0
SMALL
GASTEIGER

@<TRIPOS>ATOM
      1  C1        29.9930   44.2340    9.2420 C.ar    1  5P81        0.1734
      2  C2        28.9160   43.9330   10.0990 C.ar    1  5P81        0.2039
      3  N3        27.8390   44.7890   10.2230 N.ar    1  5P81       -0.2234
      4  C4        27.8220   45.9680    9.4930 C.ar    1  5P81        0.1007
      5  C5        28.8480   46.3680    8.6050 C.ar    1  5P81        0.0257
      6  C6        29.9120   45.4530    8.5200 C.ar    1  5P81        0.0416
      7  O7        31.0350   43.3250    9.1860 O.3     1  5P81       -0.4718
      8  C8        32.2090   43.5390    8.3520 C.3     1  5P81        0.1886
      9  C9        32.9180   42.1720    8.2670 C.3     1  5P81        0.0523
     10  C10       33.1400   44.6400    8.9220 C.ar    1  5P81        0.0238
     11  C11       33.5380   45.8350    8.1850 C.ar    1  5P81        0.0531
     12  C12       34.4000   46.8120    8.7880 C.ar    1  5P81        0.0066
     13  C13       34.8690   46.6270   10.1040 C.ar    1  5P81        0.0298
     14  C14       34.4920   45.4820   10.8230 C.ar    1  5P81        0.1399
     15  C15       33.6470   44.5010   10.2610 C.ar    1  5P81        0.0290
     16  N17       28.9340   42.7370   10.8520 N.pl3   1  5P81       -0.1039
     17  C18       28.8920   47.6360    7.8070 C.ar    1  5P81        0.0456
     18  C19       27.8080   48.4060    7.3250 C.ar    1  5P81        0.1470
     19  N20       28.3760   49.4780    6.6600 N.ar    1  5P81       -0.2394
     20  N21       29.7090   49.4810    6.6570 N.ar    1  5P81       -0.1713
     21  C22       30.0600   48.3890    7.3350 C.ar    1  5P81        0.1008
     22  C23       26.3890   48.2230    7.4390 C.1     1  5P81        0.1194
     23  N24       25.2410   48.0740    7.4870 N.1     1  5P81       -0.1893
     24  C25       27.6890   50.5690    5.9860 C.3     1  5P81        0.1545
     25  N26       32.1780   47.1950    6.4830 N.am    1  5P81       -0.2686
     26  C27       33.0940   46.1240    6.7820 C.2     1  5P81        0.2492
     27  C28       31.5520   48.1510    7.4820 C.3     1  5P81        0.1414
     28  C29       31.8320   47.3710    5.0630 C.3     1  5P81        0.1156
     29  O30       33.5850   45.3670    5.9340 O.2     1  5P81       -0.2699
     30  F16       34.9420   45.3170   12.0630 F       1  5P81       -0.2042
@<TRIPOS>BOND
     1     1     2   ar
     2     1     6   ar
     3     1     7    1
     4     2     3   ar
     5     2    16    1
     6     3     4   ar
     7     4     5   ar
     8     5     6   ar
     9     5    17    1
    10     7     8    1
    11     8     9    1
    12     8    10    1
    13    10    11   ar
    14    10    15   ar
    15    11    12   ar
    16    11    26    1
    17    12    13   ar
    18    13    14   ar
    19    14    15   ar
    20    14    30    1
    21    17    18   ar
    22    17    21   ar
    23    18    19   ar
    24    18    22    1
    25    19    20   ar
    26    19    24    1
    27    20    21   ar
    28    21    27    1
    29    22    23    3
    30    25    26   am
    31    25    27    1
    32    25    28    1
    33    26    29    2
