@<TRIPOS>MOLECULE
4eok_Lig.pdb
 28 31 0 0 0
SMALL
GASTEIGER

@<TRIPOS>ATOM
      1  N1        -7.0720  -22.7870   23.4560 N.2     1  4SP1       -0.2876
      2  C2        -7.9070  -23.4500   24.2370 C.1     1  4SP1        0.2290
      3  N2        -7.4810  -24.3930   25.0540 N.pl3   1  4SP1       -0.1253
      4  N3        -9.1890  -23.2200   24.2430 N.2     1  4SP1       -0.3050
      5  C4        -9.6350  -22.2880   23.4380 C.2     1  4SP1        0.2523
      6  C5        -8.7730  -21.5440   22.5820 C.2     1  4SP1        0.1985
      7  C6        -7.4650  -21.8480   22.6350 C.2     1  4SP1        0.3114
      8  O6        -6.5860  -21.2020   21.8840 O.2     1  4SP1       -0.4501
      9  N7        -9.5310  -20.7100   21.9430 N.2     1  4SP1       -0.2138
     10  C8       -10.7650  -20.9120   22.3300 C.2     1  4SP1        0.2014
     11  N9       -10.8450  -21.8700   23.2330 N.2     1  4SP1       -0.1915
     12  C10       -5.2600  -21.3080   22.2460 C.3     1  4SP1        0.2081
     13  C11       -4.3640  -21.1010   21.0710 C.3     1  4SP1        0.0438
     14  C12       -4.8380  -21.8720   19.8830 C.3     1  4SP1        0.0037
     15  C13       -4.0570  -21.3390   18.7300 C.3     1  4SP1        0.0001
     16  C14       -2.5710  -21.5660   18.9060 C.3     1  4SP1        0.0000
     17  C15       -2.0630  -21.1350   20.2720 C.3     1  4SP1        0.0001
     18  C16       -2.9800  -21.5870   21.3790 C.3     1  4SP1        0.0037
     19  C17       -6.3520  -25.0830   25.0580 C.ar    1  4SP1        0.0836
     20  C18       -5.5340  -25.1990   23.9800 C.ar    1  4SP1        0.0188
     21  C19       -4.3900  -25.9490   24.0670 C.ar    1  4SP1        0.0214
     22  C20       -4.0310  -26.6010   25.2290 C.ar    1  4SP1        0.1251
     23  C21       -4.8600  -26.4780   26.3040 C.ar    1  4SP1        0.0214
     24  C22       -6.0140  -25.7380   26.2100 C.ar    1  4SP1        0.0188
     25  S23       -2.7080  -27.4410   25.2860 S.O2    1  4SP1        0.0935
     26  O24       -2.8100  -28.6690   24.6820 O.2     1  4SP1       -0.1503
     27  O25       -2.1700  -27.5660   26.5450 O.2     1  4SP1       -0.1503
     28  N26       -1.7250  -26.7560   24.5150 N.3     1  4SP1        0.0392
@<TRIPOS>BOND
     1     1     2    2
     2     1     7    2
     3     2     3    1
     4     2     4    2
     5     3    19    1
     6     4     5    2
     7     5     6    1
     8     5    11    1
     9     6     7    1
    10     6     9    2
    11     7     8    1
    12     8    12    1
    13     9    10    1
    14    10    11    2
    15    12    13    1
    16    13    14    1
    17    13    18    1
    18    14    15    1
    19    15    16    1
    20    16    17    1
    21    17    18    1
    22    19    20   ar
    23    19    24   ar
    24    20    21   ar
    25    21    22   ar
    26    22    23   ar
    27    22    25    1
    28    23    24   ar
    29    25    26    2
    30    25    27    2
    31    25    28    1
